(PID.TID 0000.0001) *** ERROR *** EESET_PARMS: Error reading parameter file "eedata"
(PID.TID 0000.0001) *** ERROR *** EEDIE: earlier error in multi-proc/thread setting
(PID.TID 0000.0001) *** ERROR *** PROGRAM MAIN: ends with fatal Error
