(PID.TID 0000.0001) 
(PID.TID 0000.0001) // ======================================================
(PID.TID 0000.0001) //                      MITgcm UV
(PID.TID 0000.0001) //                      =========
(PID.TID 0000.0001) // ======================================================
(PID.TID 0000.0001) // execution environment starting up...
(PID.TID 0000.0001) 
(PID.TID 0000.0001) // MITgcmUV version:  checkpoint68i
(PID.TID 0000.0001) // Build user:        birdy
(PID.TID 0000.0001) // Build host:        clytemnestra.local
(PID.TID 0000.0001) // Build date:        Tue May 10 08:47:08 EDT 2022
(PID.TID 0000.0001) 
(PID.TID 0000.0001) // =======================================================
(PID.TID 0000.0001) // Execution Environment parameter file "eedata"
(PID.TID 0000.0001) // =======================================================
(PID.TID 0000.0001) > &EEPARMS
(PID.TID 0000.0001) > nTx = 1,
(PID.TID 0000.0001) > nTy = 1,
(PID.TID 0000.0001) > /
(PID.TID 0000.0001) >
(PID.TID 0000.0001) 
(PID.TID 0000.0001) // =======================================================
(PID.TID 0000.0001) // Computational Grid Specification ( see files "SIZE.h" )
(PID.TID 0000.0001) //                                  ( and "eedata"       )
(PID.TID 0000.0001) // =======================================================
(PID.TID 0000.0001)      nPx =    1 ; /* No. processes in X */
(PID.TID 0000.0001)      nPy =    1 ; /* No. processes in Y */
(PID.TID 0000.0001)      nSx =    1 ; /* No. tiles in X per process */
(PID.TID 0000.0001)      nSy =    1 ; /* No. tiles in Y per process */
(PID.TID 0000.0001)      sNx =    1 ; /* Tile size in X */
(PID.TID 0000.0001)      sNy =    1 ; /* Tile size in Y */
(PID.TID 0000.0001)      OLx =    4 ; /* Tile overlap distance in X */
(PID.TID 0000.0001)      OLy =    4 ; /* Tile overlap distance in Y */
(PID.TID 0000.0001)      nTx =    1 ; /* No. threads in X per process */
(PID.TID 0000.0001)      nTy =    1 ; /* No. threads in Y per process */
(PID.TID 0000.0001)       Nr =    1 ; /* No. levels in the vertical   */
(PID.TID 0000.0001)       Nx =    1 ; /* Total domain size in X ( = nPx*nSx*sNx ) */
(PID.TID 0000.0001)       Ny =    1 ; /* Total domain size in Y ( = nPy*nSy*sNy ) */
(PID.TID 0000.0001)   nTiles =    1 ; /* Total no. tiles per process ( = nSx*nSy ) */
(PID.TID 0000.0001)   nProcs =    1 ; /* Total no. processes ( = nPx*nPy ) */
(PID.TID 0000.0001) nThreads =    1 ; /* Total no. threads per process ( = nTx*nTy ) */
(PID.TID 0000.0001) usingMPI =    F ; /* Flag used to control whether MPI is in use */
(PID.TID 0000.0001)                   /*  note: To execute a program with MPI calls */
(PID.TID 0000.0001)                   /*  it must be launched appropriately e.g     */
(PID.TID 0000.0001)                   /*  "mpirun -np 64 ......"                    */
(PID.TID 0000.0001) useCoupler=   F ; /* Flag used to control communications with   */
(PID.TID 0000.0001)                   /*  other model components, through a coupler */
(PID.TID 0000.0001) useNest2W_parent =    F ;/* Control 2-W Nesting comm */
(PID.TID 0000.0001) useNest2W_child  =    F ;/* Control 2-W Nesting comm */
(PID.TID 0000.0001) debugMode =    F ; /* print debug msg. (sequence of S/R calls)  */
(PID.TID 0000.0001) printMapIncludesZeros=    F ; /* print zeros in Std.Output maps */
(PID.TID 0000.0001) maxLengthPrt1D=   65 /* maxLength of 1D array printed to StdOut */
(PID.TID 0000.0001) 
(PID.TID 0000.0001) // ======================================================
(PID.TID 0000.0001) // Mapping of tiles to threads
(PID.TID 0000.0001) // ======================================================
(PID.TID 0000.0001) // -o- Thread   1, tiles (   1:   1,   1:   1)
(PID.TID 0000.0001) 
(PID.TID 0000.0001) // ======================================================
(PID.TID 0000.0001) // Tile <-> Tile connectvity table
(PID.TID 0000.0001) // ======================================================
(PID.TID 0000.0001) // Tile number: 000001 (process no. = 000000)
(PID.TID 0000.0001) //        WEST: Tile = 000001, Process = 000000, Comm = put
(PID.TID 0000.0001) //                bi = 000001, bj = 000001
(PID.TID 0000.0001) //        EAST: Tile = 000001, Process = 000000, Comm = put
(PID.TID 0000.0001) //                bi = 000001, bj = 000001
(PID.TID 0000.0001) //       SOUTH: Tile = 000001, Process = 000000, Comm = put
(PID.TID 0000.0001) //                bi = 000001, bj = 000001
(PID.TID 0000.0001) //       NORTH: Tile = 000001, Process = 000000, Comm = put
(PID.TID 0000.0001) //                bi = 000001, bj = 000001
(PID.TID 0000.0001) 
(PID.TID 0000.0001)  INI_PARMS: opening model parameter file "data"
(PID.TID 0000.0001)  OPEN_COPY_DATA_FILE: opening file data
(PID.TID 0000.0001) // =======================================================
(PID.TID 0000.0001) // Parameter file "data"
(PID.TID 0000.0001) // =======================================================
(PID.TID 0000.0001) > &PARM01
(PID.TID 0000.0001) > tRef = 20.0,
(PID.TID 0000.0001) > sRef = 35.0,
(PID.TID 0000.0001) > no_slip_sides = .FALSE.,
(PID.TID 0000.0001) > no_slip_bottom = .TRUE.,
(PID.TID 0000.0001) > viscAz = 0.001,
(PID.TID 0000.0001) > viscAh = 10000.0,
(PID.TID 0000.0001) > diffKhT = 100.0,
(PID.TID 0000.0001) > diffKzT = 1.0e-5,
(PID.TID 0000.0001) > diffKhS = 100.0,
(PID.TID 0000.0001) > diffKzS = 1.0e-5,
(PID.TID 0000.0001) > beta = 1.0e-11,
(PID.TID 0000.0001) > tAlpha = 0.0002,
(PID.TID 0000.0001) > sBeta = 0.00074,
(PID.TID 0000.0001) > gravity = 9.81,
(PID.TID 0000.0001) > gBaro = 9.81,
(PID.TID 0000.0001) > rigidLid = .FALSE.,
(PID.TID 0000.0001) > implicitFreeSurface = .TRUE.,
(PID.TID 0000.0001) > eosType = 'POLY3',
(PID.TID 0000.0001) > saltStepping = .TRUE.,
(PID.TID 0000.0001) > tempStepping = .TRUE.,
(PID.TID 0000.0001) > momStepping = .TRUE.,
(PID.TID 0000.0001) > implicitDiffusion = .TRUE.,
(PID.TID 0000.0001) > implicitViscosity = .TRUE.,
(PID.TID 0000.0001) > allowFreezing = .FALSE.,
(PID.TID 0000.0001) > useSingleCpuIO = .TRUE.,
(PID.TID 0000.0001) > useCDscheme = .FALSE.,
(PID.TID 0000.0001) > tempAdvScheme = 3,
(PID.TID 0000.0001) > saltAdvScheme = 3,
(PID.TID 0000.0001) > readBinaryPrec = 32,
(PID.TID 0000.0001) > writeBinaryPrec = 32,
(PID.TID 0000.0001) > /
(PID.TID 0000.0001) >
(PID.TID 0000.0001) > &PARM02
(PID.TID 0000.0001) > cg2dMaxIters = 300,
(PID.TID 0000.0001) > cg2dTargetResidual = 1.0e-7,
(PID.TID 0000.0001) > /
(PID.TID 0000.0001) >
(PID.TID 0000.0001) > &PARM03
(PID.TID 0000.0001) > nIter0 = 0,
(PID.TID 0000.0001) > nenditer = 2880,
(PID.TID 0000.0001) > deltaTmom = 10800.0,
(PID.TID 0000.0001) > deltaTtracer = 10800.0,
(PID.TID 0000.0001) > deltaTClock = 10800.0,
(PID.TID 0000.0001) > abEps = 0.1,
(PID.TID 0000.0001) > pChkptFreq = 3.1104e7,
(PID.TID 0000.0001) > chkptFreq = 3.1104e7,
(PID.TID 0000.0001) > dumpFreq = 3.1104e7,
(PID.TID 0000.0001) > dumpInitAndLast = .FALSE.,
(PID.TID 0000.0001) > taveFreq = 3.1104e7,
(PID.TID 0000.0001) > monitorFreq = 3.1104e7,
(PID.TID 0000.0001) > tauThetaClimRelax = 0.0,
(PID.TID 0000.0001) > tauSaltClimRelax = 0.0,
(PID.TID 0000.0001) > periodicExternalForcing = .TRUE.,
(PID.TID 0000.0001) > externForcingPeriod = 2.592e6,
(PID.TID 0000.0001) > externForcingCycle = 3.1104e7,
(PID.TID 0000.0001) > /
(PID.TID 0000.0001) >
(PID.TID 0000.0001) > &PARM04
(PID.TID 0000.0001) > usingCartesianGrid = .TRUE.,
(PID.TID 0000.0001) > usingSphericalPolarGrid = .FALSE.,
(PID.TID 0000.0001) > delX = 1.0,
(PID.TID 0000.0001) > delY = 1.0,
(PID.TID 0000.0001) > delZ = 1.0,
(PID.TID 0000.0001) > /
(PID.TID 0000.0001) >
(PID.TID 0000.0001) > &PARM05
(PID.TID 0000.0001) > bathyFile = ' ',
(PID.TID 0000.0001) > zonalWindFile = '',
(PID.TID 0000.0001) > meridWindFile = '',
(PID.TID 0000.0001) > thetaClimFile = '',
(PID.TID 0000.0001) > saltClimFile = '',
(PID.TID 0000.0001) > surfQFile = '',
(PID.TID 0000.0001) > EmPmRFile = '',
(PID.TID 0000.0001) > /
(PID.TID 0000.0001) >
(PID.TID 0000.0001) 
(PID.TID 0000.0001)  INI_PARMS ; starts to read PARM01
(PID.TID 0000.0001)  INI_PARMS ; read PARM01 : OK
(PID.TID 0000.0001)  INI_PARMS ; starts to read PARM02
(PID.TID 0000.0001)  INI_PARMS ; read PARM02 : OK
(PID.TID 0000.0001)  INI_PARMS ; starts to read PARM03
(PID.TID 0000.0001)  INI_PARMS ; read PARM03 : OK
(PID.TID 0000.0001)  INI_PARMS ; starts to read PARM04
(PID.TID 0000.0001)  INI_PARMS ; read PARM04 : OK
(PID.TID 0000.0001)  INI_PARMS ; starts to read PARM05
(PID.TID 0000.0001)  INI_PARMS ; read PARM05 : OK
(PID.TID 0000.0001)  INI_PARMS: finished reading file "data"
(PID.TID 0000.0001)  PACKAGES_BOOT: opening data.pkg
(PID.TID 0000.0001)  OPEN_COPY_DATA_FILE: opening file data.pkg
(PID.TID 0000.0001) // =======================================================
(PID.TID 0000.0001) // Parameter file "data.pkg"
(PID.TID 0000.0001) // =======================================================
(PID.TID 0000.0001) > &PACKAGES
(PID.TID 0000.0001) > useGMRedi = .TRUE.,
(PID.TID 0000.0001) > usePTRACERS = .TRUE.,
(PID.TID 0000.0001) > useGCHEM = .TRUE.,
(PID.TID 0000.0001) > useRADTRANS = .TRUE.,
(PID.TID 0000.0001) > useKPP = .TRUE.,
(PID.TID 0000.0001) > useMNC = .TRUE.,
(PID.TID 0000.0001) > useEXF = .TRUE.,
(PID.TID 0000.0001) > useCAL = .TRUE.,
(PID.TID 0000.0001) > useOFFLINE = .TRUE.,
(PID.TID 0000.0001) > useDIAGNOSTICS = .TRUE.,
(PID.TID 0000.0001) > /
(PID.TID 0000.0001) >
(PID.TID 0000.0001) 
(PID.TID 0000.0001)  PACKAGES_BOOT: finished reading data.pkg
(PID.TID 0000.0001)  PACKAGES_BOOT: On/Off package Summary
 --------  pkgs with a standard "usePKG" On/Off switch in "data.pkg":  --------
 pkg/kpp                  compiled   and   used ( useKPP                   = T )
 pkg/gmredi               compiled   and   used ( useGMRedi                = T )
 pkg/cal                  compiled   and   used ( useCAL                   = T )
 pkg/exf                  compiled   and   used ( useEXF                   = T )
 pkg/sbo                  compiled but not used ( useSBO                   = F )
 pkg/radtrans             compiled   and   used ( useRADTRANS              = T )
 pkg/ptracers             compiled   and   used ( usePTRACERS              = T )
 pkg/gchem                compiled   and   used ( useGCHEM                 = T )
 pkg/offline              compiled   and   used ( useOffLine               = T )
 pkg/diagnostics          compiled   and   used ( useDiagnostics           = T )
 pkg/mnc                  compiled   and   used ( useMNC                   = T )
 -------- pkgs without standard "usePKG" On/Off switch in "data.pkg":  --------
 pkg/generic_advdiff      compiled   and   used ( useGAD                   = T )
 pkg/mom_common           compiled   and   used ( momStepping              = T )
 pkg/mom_vecinv           compiled but not used ( +vectorInvariantMomentum = F )
 pkg/mom_fluxform         compiled   and   used ( & not vectorInvariantMom = T )
 pkg/monitor              compiled   and   used ( monitorFreq > 0.         = T )
 pkg/timeave              compiled   and   used ( taveFreq > 0.            = T )
 pkg/rw                   compiled   and   used
 pkg/mdsio                compiled   and   used
(PID.TID 0000.0001)  PACKAGES_BOOT: End of package Summary
(PID.TID 0000.0001) 
(PID.TID 0000.0001)  MNC_READPARMS: opening file 'data.mnc'
(PID.TID 0000.0001)  OPEN_COPY_DATA_FILE: opening file data.mnc
(PID.TID 0000.0001) // =======================================================
(PID.TID 0000.0001) // Parameter file "data.mnc"
(PID.TID 0000.0001) // =======================================================
(PID.TID 0000.0001) > &MNC_01
(PID.TID 0000.0001) > mnc_use_outdir = .TRUE.,
(PID.TID 0000.0001) > mnc_outdir_str = 'ecco_gud_',
(PID.TID 0000.0001) > mnc_outdir_date = .TRUE.,
(PID.TID 0000.0001) > monitor_mnc = .FALSE.,
(PID.TID 0000.0001) > snapshot_mnc = .TRUE.,
(PID.TID 0000.0001) > timeave_mnc = .TRUE.,
(PID.TID 0000.0001) > pickup_read_mnc = .FALSE.,
(PID.TID 0000.0001) > pickup_write_mnc = .FALSE.,
(PID.TID 0000.0001) > mnc_filefreq = 3.1104e7,
(PID.TID 0000.0001) > mnc_max_fsize = 1.0e12,
(PID.TID 0000.0001) > /
(PID.TID 0000.0001) >
(PID.TID 0000.0001) 
(PID.TID 0000.0001)  MNC_READPARMS: finished reading data.mnc
(PID.TID 0000.0001) CAL_READPARMS: opening data.cal
(PID.TID 0000.0001)  OPEN_COPY_DATA_FILE: opening file data.cal
(PID.TID 0000.0001) // =======================================================
(PID.TID 0000.0001) // Parameter file "data.cal"
(PID.TID 0000.0001) // =======================================================
(PID.TID 0000.0001) > &CAL_NML
(PID.TID 0000.0001) > TheCalendar = 'model',
(PID.TID 0000.0001) > startDate_1 = 20000101,
(PID.TID 0000.0001) > startDate_2 = 0,
(PID.TID 0000.0001) > calendarDumps = .TRUE.,
(PID.TID 0000.0001) > /
(PID.TID 0000.0001) >
(PID.TID 0000.0001) 
(PID.TID 0000.0001) CAL_READPARMS: finished reading data.cal
(PID.TID 0000.0001) EXF_READPARMS: opening data.exf
(PID.TID 0000.0001)  OPEN_COPY_DATA_FILE: opening file data.exf
(PID.TID 0000.0001) // =======================================================
(PID.TID 0000.0001) // Parameter file "data.exf"
(PID.TID 0000.0001) // =======================================================
(PID.TID 0000.0001) > &EXF_NML_01
(PID.TID 0000.0001) > exf_iprec = 32,
(PID.TID 0000.0001) > exf_yftype = 'RL',
(PID.TID 0000.0001) > useExfCheckRange = .FALSE.,
(PID.TID 0000.0001) > repeatPeriod = 3.1104e7,
(PID.TID 0000.0001) > /
(PID.TID 0000.0001) >
(PID.TID 0000.0001) > &EXF_NML_02
(PID.TID 0000.0001) > /
(PID.TID 0000.0001) >
(PID.TID 0000.0001) > &EXF_NML_03
(PID.TID 0000.0001) > /
(PID.TID 0000.0001) >
(PID.TID 0000.0001) > &EXF_NML_04
(PID.TID 0000.0001) > /
(PID.TID 0000.0001) >
(PID.TID 0000.0001) 
(PID.TID 0000.0001) EXF_READPARMS: reading EXF_NML_01
(PID.TID 0000.0001) EXF_READPARMS: reading EXF_NML_02
(PID.TID 0000.0001) EXF_READPARMS: reading EXF_NML_03
(PID.TID 0000.0001) EXF_READPARMS: finished reading data.exf
(PID.TID 0000.0001)  KPP_READPARMS: opening data.kpp
(PID.TID 0000.0001)  OPEN_COPY_DATA_FILE: opening file data.kpp
(PID.TID 0000.0001) // =======================================================
(PID.TID 0000.0001) // Parameter file "data.kpp"
(PID.TID 0000.0001) // =======================================================
(PID.TID 0000.0001) > &KPP_PARM01
(PID.TID 0000.0001) > /
(PID.TID 0000.0001) >
(PID.TID 0000.0001) 
(PID.TID 0000.0001)  KPP_READPARMS ; starts to read KPP_PARM01
(PID.TID 0000.0001)  KPP_READPARMS ; read KPP_PARM01 : OK
(PID.TID 0000.0001)  KPP_READPARMS: finished reading data.kpp
(PID.TID 0000.0001)  GM_READPARMS: opening data.gmredi
(PID.TID 0000.0001)  OPEN_COPY_DATA_FILE: opening file data.gmredi
(PID.TID 0000.0001) // =======================================================
(PID.TID 0000.0001) // Parameter file "data.gmredi"
(PID.TID 0000.0001) // =======================================================
(PID.TID 0000.0001) > &GM_PARM01
(PID.TID 0000.0001) > GM_Small_Number = 1.0e-20,
(PID.TID 0000.0001) > GM_slopeSqCutoff = 1.0e8,
(PID.TID 0000.0001) > GM_AdvForm = .FALSE.,
(PID.TID 0000.0001) > GM_isopycK = 1000.0,
(PID.TID 0000.0001) > GM_background_K = 1000.0,
(PID.TID 0000.0001) > GM_maxSlope = 0.01,
(PID.TID 0000.0001) > GM_taper_scheme = 'dm95',
(PID.TID 0000.0001) > GM_Kmin_horiz = 50.0,
(PID.TID 0000.0001) > GM_Scrit = 0.004,
(PID.TID 0000.0001) > GM_Sd = 0.001,
(PID.TID 0000.0001) > /
(PID.TID 0000.0001) >
(PID.TID 0000.0001) 
(PID.TID 0000.0001)  GM_READPARMS: finished reading data.gmredi
(PID.TID 0000.0001)  RADTRANS_READPARMS: opening data.radtrans
(PID.TID 0000.0001)  OPEN_COPY_DATA_FILE: opening file data.radtrans
(PID.TID 0000.0001) // =======================================================
(PID.TID 0000.0001) // Parameter file "data.radtrans"
(PID.TID 0000.0001) // =======================================================
(PID.TID 0000.0001) > &RADTRANS_FORCING_PARAMS
(PID.TID 0000.0001) > RT_E_period = -12.0,
(PID.TID 0000.0001) > RT_EdFile( 1) = '/Users/birdy/Documents/eaps_research/darwin3/verification/darwin-single-box/input/resources/cons_200_100/single_box_edp01.bin',
(PID.TID 0000.0001) > RT_EdFile( 2) = '/Users/birdy/Documents/eaps_research/darwin3/verification/darwin-single-box/input/resources/cons_200_100/single_box_edp02.bin ',
(PID.TID 0000.0001) > RT_EdFile( 3) = '/Users/birdy/Documents/eaps_research/darwin3/verification/darwin-single-box/input/resources/cons_200_100/single_box_edp03.bin',
(PID.TID 0000.0001) > RT_EdFile( 4) = '/Users/birdy/Documents/eaps_research/darwin3/verification/darwin-single-box/input/resources/cons_200_100/single_box_edp04.bin',
(PID.TID 0000.0001) > RT_EdFile( 5) = '/Users/birdy/Documents/eaps_research/darwin3/verification/darwin-single-box/input/resources/cons_200_100/single_box_edp05.bin',
(PID.TID 0000.0001) > RT_EdFile( 6) = '/Users/birdy/Documents/eaps_research/darwin3/verification/darwin-single-box/input/resources/cons_200_100/single_box_edp06.bin',
(PID.TID 0000.0001) > RT_EdFile( 7) = '/Users/birdy/Documents/eaps_research/darwin3/verification/darwin-single-box/input/resources/cons_200_100/single_box_edp07.bin',
(PID.TID 0000.0001) > RT_EdFile( 8) = '/Users/birdy/Documents/eaps_research/darwin3/verification/darwin-single-box/input/resources/cons_200_100/single_box_edp08.bin',
(PID.TID 0000.0001) > RT_EdFile( 9) = '/Users/birdy/Documents/eaps_research/darwin3/verification/darwin-single-box/input/resources/cons_200_100/single_box_edp09.bin',
(PID.TID 0000.0001) > RT_EdFile(10) = '/Users/birdy/Documents/eaps_research/darwin3/verification/darwin-single-box/input/resources/cons_200_100/single_box_edp10.bin',
(PID.TID 0000.0001) > RT_EdFile(11) = '/Users/birdy/Documents/eaps_research/darwin3/verification/darwin-single-box/input/resources/cons_200_100/single_box_edp11.bin',
(PID.TID 0000.0001) > RT_EdFile(12) = '/Users/birdy/Documents/eaps_research/darwin3/verification/darwin-single-box/input/resources/cons_200_100/single_box_edp12.bin',
(PID.TID 0000.0001) > RT_EdFile(13) = '/Users/birdy/Documents/eaps_research/darwin3/verification/darwin-single-box/input/resources/cons_200_100/single_box_edp13.bin',
(PID.TID 0000.0001) > RT_EsFile( 1) = '/Users/birdy/Documents/eaps_research/darwin3/verification/darwin-single-box/input/resources/cons_200_100/single_box_esp01.bin',
(PID.TID 0000.0001) > RT_EsFile( 2) = '/Users/birdy/Documents/eaps_research/darwin3/verification/darwin-single-box/input/resources/cons_200_100/single_box_esp02.bin',
(PID.TID 0000.0001) > RT_EsFile( 3) = '/Users/birdy/Documents/eaps_research/darwin3/verification/darwin-single-box/input/resources/cons_200_100/single_box_esp03.bin',
(PID.TID 0000.0001) > RT_EsFile( 4) = '/Users/birdy/Documents/eaps_research/darwin3/verification/darwin-single-box/input/resources/cons_200_100/single_box_esp04.bin',
(PID.TID 0000.0001) > RT_EsFile( 5) = '/Users/birdy/Documents/eaps_research/darwin3/verification/darwin-single-box/input/resources/cons_200_100/single_box_esp05.bin',
(PID.TID 0000.0001) > RT_EsFile( 6) = '/Users/birdy/Documents/eaps_research/darwin3/verification/darwin-single-box/input/resources/cons_200_100/single_box_esp06.bin',
(PID.TID 0000.0001) > RT_EsFile( 7) = '/Users/birdy/Documents/eaps_research/darwin3/verification/darwin-single-box/input/resources/cons_200_100/single_box_esp07.bin',
(PID.TID 0000.0001) > RT_EsFile( 8) = '/Users/birdy/Documents/eaps_research/darwin3/verification/darwin-single-box/input/resources/cons_200_100/single_box_esp08.bin',
(PID.TID 0000.0001) > RT_EsFile( 9) = '/Users/birdy/Documents/eaps_research/darwin3/verification/darwin-single-box/input/resources/cons_200_100/single_box_esp09.bin',
(PID.TID 0000.0001) > RT_EsFile(10) = '/Users/birdy/Documents/eaps_research/darwin3/verification/darwin-single-box/input/resources/cons_200_100/single_box_esp10.bin',
(PID.TID 0000.0001) > RT_EsFile(11) = '/Users/birdy/Documents/eaps_research/darwin3/verification/darwin-single-box/input/resources/cons_200_100/single_box_esp11.bin',
(PID.TID 0000.0001) > RT_EsFile(12) = '/Users/birdy/Documents/eaps_research/darwin3/verification/darwin-single-box/input/resources/cons_200_100/single_box_esp12.bin',
(PID.TID 0000.0001) > RT_EsFile(13) = '/Users/birdy/Documents/eaps_research/darwin3/verification/darwin-single-box/input/resources/cons_200_100/single_box_esp13.bin',
(PID.TID 0000.0001) > RT_icefile = ' ',
(PID.TID 0000.0001) > RT_icestartdate1 = 19990101,
(PID.TID 0000.0001) > RT_icestartdate2 = 120000,
(PID.TID 0000.0001) > RT_iceperiod = 86400.0,
(PID.TID 0000.0001) > /
(PID.TID 0000.0001) >
(PID.TID 0000.0001) > &RADTRANS_PARAMS
(PID.TID 0000.0001) > RT_useMeanCosSolz = .TRUE.,
(PID.TID 0000.0001) > RT_kmax = 22,
(PID.TID 0000.0001) > RT_wbEdges = 400,
(PID.TID 0000.0001) > 412.5,
(PID.TID 0000.0001) > 437.5,
(PID.TID 0000.0001) > 462.5,
(PID.TID 0000.0001) > 487.5,
(PID.TID 0000.0001) > 512.5,
(PID.TID 0000.0001) > 537.5,
(PID.TID 0000.0001) > 562.5,
(PID.TID 0000.0001) > 587.5,
(PID.TID 0000.0001) > 612.5,
(PID.TID 0000.0001) > 637.5,
(PID.TID 0000.0001) > 662.5,
(PID.TID 0000.0001) > 687.5,
(PID.TID 0000.0001) > 700,
(PID.TID 0000.0001) > RT_wbRefWLs = 400,
(PID.TID 0000.0001) > 425,
(PID.TID 0000.0001) > 450,
(PID.TID 0000.0001) > 475,
(PID.TID 0000.0001) > 500,
(PID.TID 0000.0001) > 525,
(PID.TID 0000.0001) > 550,
(PID.TID 0000.0001) > 575,
(PID.TID 0000.0001) > 600,
(PID.TID 0000.0001) > 625,
(PID.TID 0000.0001) > 650,
(PID.TID 0000.0001) > 675,
(PID.TID 0000.0001) > 700,
(PID.TID 0000.0001) > /
(PID.TID 0000.0001) >
(PID.TID 0000.0001) 
(PID.TID 0000.0001)  ===================================
(PID.TID 0000.0001)  PTRACERS_READPARMS: opening data.ptracers
(PID.TID 0000.0001)  OPEN_COPY_DATA_FILE: opening file data.ptracers
(PID.TID 0000.0001) // =======================================================
(PID.TID 0000.0001) // Parameter file "data.ptracers"
(PID.TID 0000.0001) // =======================================================
(PID.TID 0000.0001) > &PTRACERS_PARM01
(PID.TID 0000.0001) > PTRACERS_numInUse = 101,
(PID.TID 0000.0001) > PTRACERS_Iter0 = 0,
(PID.TID 0000.0001) > PTRACERS_advScheme(:) = 101*33,
(PID.TID 0000.0001) > PTRACERS_diffKh(:) = 101*0.0,
(PID.TID 0000.0001) > PTRACERS_diffKr(:) = 101*1D-05,
(PID.TID 0000.0001) > PTRACERS_useGMRedi(:) = 101*.TRUE.,
(PID.TID 0000.0001) > PTRACERS_useKPP(:) = 101*.TRUE.,
(PID.TID 0000.0001) > PTRACERS_ref( :, 1) = 2000.0,
(PID.TID 0000.0001) > PTRACERS_ref( :,18) = 21834.934,
(PID.TID 0000.0001) > PTRACERS_names(  1) = 'DIC',
(PID.TID 0000.0001) > PTRACERS_names(  2) = 'NO3',
(PID.TID 0000.0001) > PTRACERS_names(  3) = 'NO2',
(PID.TID 0000.0001) > PTRACERS_names(  4) = 'NH4',
(PID.TID 0000.0001) > PTRACERS_names(  5) = 'PO4',
(PID.TID 0000.0001) > PTRACERS_names(  6) = 'FeT',
(PID.TID 0000.0001) > PTRACERS_names(  7) = 'SiO2',
(PID.TID 0000.0001) > PTRACERS_names(  8) = 'DOC',
(PID.TID 0000.0001) > PTRACERS_names(  9) = 'DON',
(PID.TID 0000.0001) > PTRACERS_names( 10) = 'DOP',
(PID.TID 0000.0001) > PTRACERS_names( 11) = 'DOFe',
(PID.TID 0000.0001) > PTRACERS_names( 12) = 'POC',
(PID.TID 0000.0001) > PTRACERS_names( 13) = 'PON',
(PID.TID 0000.0001) > PTRACERS_names( 14) = 'POP',
(PID.TID 0000.0001) > PTRACERS_names( 15) = 'POFe',
(PID.TID 0000.0001) > PTRACERS_names( 16) = 'POSi',
(PID.TID 0000.0001) > PTRACERS_names( 17) = 'PIC',
(PID.TID 0000.0001) > PTRACERS_names( 18) = 'ALK',
(PID.TID 0000.0001) > PTRACERS_names( 19) = 'O2',
(PID.TID 0000.0001) > PTRACERS_names( 20) = 'CDOM',
(PID.TID 0000.0001) > PTRACERS_names( 21) = 'c01',
(PID.TID 0000.0001) > PTRACERS_names( 22) = 'c02',
(PID.TID 0000.0001) > PTRACERS_names( 23) = 'c03',
(PID.TID 0000.0001) > PTRACERS_names( 24) = 'c04',
(PID.TID 0000.0001) > PTRACERS_names( 25) = 'c05',
(PID.TID 0000.0001) > PTRACERS_names( 26) = 'c06',
(PID.TID 0000.0001) > PTRACERS_names( 27) = 'c07',
(PID.TID 0000.0001) > PTRACERS_names( 28) = 'c08',
(PID.TID 0000.0001) > PTRACERS_names( 29) = 'c09',
(PID.TID 0000.0001) > PTRACERS_names( 30) = 'c10',
(PID.TID 0000.0001) > PTRACERS_names( 31) = 'c11',
(PID.TID 0000.0001) > PTRACERS_names( 32) = 'c12',
(PID.TID 0000.0001) > PTRACERS_names( 33) = 'c13',
(PID.TID 0000.0001) > PTRACERS_names( 34) = 'c14',
(PID.TID 0000.0001) > PTRACERS_names( 35) = 'c15',
(PID.TID 0000.0001) > PTRACERS_names( 36) = 'c16',
(PID.TID 0000.0001) > PTRACERS_names( 37) = 'c17',
(PID.TID 0000.0001) > PTRACERS_names( 38) = 'c18',
(PID.TID 0000.0001) > PTRACERS_names( 39) = 'c19',
(PID.TID 0000.0001) > PTRACERS_names( 40) = 'c20',
(PID.TID 0000.0001) > PTRACERS_names( 41) = 'c21',
(PID.TID 0000.0001) > PTRACERS_names( 42) = 'c22',
(PID.TID 0000.0001) > PTRACERS_names( 43) = 'c23',
(PID.TID 0000.0001) > PTRACERS_names( 44) = 'c24',
(PID.TID 0000.0001) > PTRACERS_names( 45) = 'c25',
(PID.TID 0000.0001) > PTRACERS_names( 46) = 'c26',
(PID.TID 0000.0001) > PTRACERS_names( 47) = 'c27',
(PID.TID 0000.0001) > PTRACERS_names( 48) = 'c28',
(PID.TID 0000.0001) > PTRACERS_names( 49) = 'c29',
(PID.TID 0000.0001) > PTRACERS_names( 50) = 'c30',
(PID.TID 0000.0001) > PTRACERS_names( 51) = 'c31',
(PID.TID 0000.0001) > PTRACERS_names( 52) = 'c32',
(PID.TID 0000.0001) > PTRACERS_names( 53) = 'c33',
(PID.TID 0000.0001) > PTRACERS_names( 54) = 'c34',
(PID.TID 0000.0001) > PTRACERS_names( 55) = 'c35',
(PID.TID 0000.0001) > PTRACERS_names( 56) = 'c36',
(PID.TID 0000.0001) > PTRACERS_names( 57) = 'c37',
(PID.TID 0000.0001) > PTRACERS_names( 58) = 'c38',
(PID.TID 0000.0001) > PTRACERS_names( 59) = 'c39',
(PID.TID 0000.0001) > PTRACERS_names( 60) = 'c40',
(PID.TID 0000.0001) > PTRACERS_names( 61) = 'c41',
(PID.TID 0000.0001) > PTRACERS_names( 62) = 'c42',
(PID.TID 0000.0001) > PTRACERS_names( 63) = 'c43',
(PID.TID 0000.0001) > PTRACERS_names( 64) = 'c44',
(PID.TID 0000.0001) > PTRACERS_names( 65) = 'c45',
(PID.TID 0000.0001) > PTRACERS_names( 66) = 'c46',
(PID.TID 0000.0001) > PTRACERS_names( 67) = 'c47',
(PID.TID 0000.0001) > PTRACERS_names( 68) = 'c48',
(PID.TID 0000.0001) > PTRACERS_names( 69) = 'c49',
(PID.TID 0000.0001) > PTRACERS_names( 70) = 'c50',
(PID.TID 0000.0001) > PTRACERS_names( 71) = 'Chl01',
(PID.TID 0000.0001) > PTRACERS_names( 72) = 'Chl02',
(PID.TID 0000.0001) > PTRACERS_names( 73) = 'Chl03',
(PID.TID 0000.0001) > PTRACERS_names( 74) = 'Chl04',
(PID.TID 0000.0001) > PTRACERS_names( 75) = 'Chl05',
(PID.TID 0000.0001) > PTRACERS_names( 76) = 'Chl06',
(PID.TID 0000.0001) > PTRACERS_names( 77) = 'Chl07',
(PID.TID 0000.0001) > PTRACERS_names( 78) = 'Chl08',
(PID.TID 0000.0001) > PTRACERS_names( 79) = 'Chl09',
(PID.TID 0000.0001) > PTRACERS_names( 80) = 'Chl10',
(PID.TID 0000.0001) > PTRACERS_names( 81) = 'Chl11',
(PID.TID 0000.0001) > PTRACERS_names( 82) = 'Chl12',
(PID.TID 0000.0001) > PTRACERS_names( 83) = 'Chl13',
(PID.TID 0000.0001) > PTRACERS_names( 84) = 'Chl14',
(PID.TID 0000.0001) > PTRACERS_names( 85) = 'Chl15',
(PID.TID 0000.0001) > PTRACERS_names( 86) = 'Chl16',
(PID.TID 0000.0001) > PTRACERS_names( 87) = 'Chl17',
(PID.TID 0000.0001) > PTRACERS_names( 88) = 'Chl18',
(PID.TID 0000.0001) > PTRACERS_names( 89) = 'Chl19',
(PID.TID 0000.0001) > PTRACERS_names( 90) = 'Chl20',
(PID.TID 0000.0001) > PTRACERS_names( 91) = 'Chl21',
(PID.TID 0000.0001) > PTRACERS_names( 92) = 'Chl22',
(PID.TID 0000.0001) > PTRACERS_names( 93) = 'Chl23',
(PID.TID 0000.0001) > PTRACERS_names( 94) = 'Chl24',
(PID.TID 0000.0001) > PTRACERS_names( 95) = 'Chl25',
(PID.TID 0000.0001) > PTRACERS_names( 96) = 'Chl26',
(PID.TID 0000.0001) > PTRACERS_names( 97) = 'Chl27',
(PID.TID 0000.0001) > PTRACERS_names( 98) = 'Chl28',
(PID.TID 0000.0001) > PTRACERS_names( 99) = 'Chl29',
(PID.TID 0000.0001) > PTRACERS_names(100) = 'Chl30',
(PID.TID 0000.0001) > PTRACERS_names(101) = 'Chl31',
(PID.TID 0000.0001) > PTRACERS_units(  1) = 'mmol C/m^3',
(PID.TID 0000.0001) > PTRACERS_units(  2) = 'mmol N/m^3',
(PID.TID 0000.0001) > PTRACERS_units(  3) = 'mmol N/m^3',
(PID.TID 0000.0001) > PTRACERS_units(  4) = 'mmol N/m^3',
(PID.TID 0000.0001) > PTRACERS_units(  5) = 'mmol P/m^3',
(PID.TID 0000.0001) > PTRACERS_units(  6) = 'mmol Fe/m^3',
(PID.TID 0000.0001) > PTRACERS_units(  7) = 'mmol Si/m^3',
(PID.TID 0000.0001) > PTRACERS_units(  8) = 'mmol C/m^3',
(PID.TID 0000.0001) > PTRACERS_units(  9) = 'mmol N/m^3',
(PID.TID 0000.0001) > PTRACERS_units( 10) = 'mmol P/m^3',
(PID.TID 0000.0001) > PTRACERS_units( 11) = 'mmol Fe/m^3',
(PID.TID 0000.0001) > PTRACERS_units( 12) = 'mmol C/m^3',
(PID.TID 0000.0001) > PTRACERS_units( 13) = 'mmol N/m^3',
(PID.TID 0000.0001) > PTRACERS_units( 14) = 'mmol P/m^3',
(PID.TID 0000.0001) > PTRACERS_units( 15) = 'mmol Fe/m^3',
(PID.TID 0000.0001) > PTRACERS_units( 16) = 'mmol Si/m^3',
(PID.TID 0000.0001) > PTRACERS_units( 17) = 'mmol C/m^3',
(PID.TID 0000.0001) > PTRACERS_units( 18) = 'mmol eq/m^3',
(PID.TID 0000.0001) > PTRACERS_units( 19) = 'mmol O/m^3',
(PID.TID 0000.0001) > PTRACERS_units( 20) = 'mmol C/m^3',
(PID.TID 0000.0001) > PTRACERS_units( 21) = 'mmol C/m^3',
(PID.TID 0000.0001) > PTRACERS_units( 22) = 'mmol C/m^3',
(PID.TID 0000.0001) > PTRACERS_units( 23) = 'mmol C/m^3',
(PID.TID 0000.0001) > PTRACERS_units( 24) = 'mmol C/m^3',
(PID.TID 0000.0001) > PTRACERS_units( 25) = 'mmol C/m^3',
(PID.TID 0000.0001) > PTRACERS_units( 26) = 'mmol C/m^3',
(PID.TID 0000.0001) > PTRACERS_units( 27) = 'mmol C/m^3',
(PID.TID 0000.0001) > PTRACERS_units( 28) = 'mmol C/m^3',
(PID.TID 0000.0001) > PTRACERS_units( 29) = 'mmol C/m^3',
(PID.TID 0000.0001) > PTRACERS_units( 30) = 'mmol C/m^3',
(PID.TID 0000.0001) > PTRACERS_units( 31) = 'mmol C/m^3',
(PID.TID 0000.0001) > PTRACERS_units( 32) = 'mmol C/m^3',
(PID.TID 0000.0001) > PTRACERS_units( 33) = 'mmol C/m^3',
(PID.TID 0000.0001) > PTRACERS_units( 34) = 'mmol C/m^3',
(PID.TID 0000.0001) > PTRACERS_units( 35) = 'mmol C/m^3',
(PID.TID 0000.0001) > PTRACERS_units( 36) = 'mmol C/m^3',
(PID.TID 0000.0001) > PTRACERS_units( 37) = 'mmol C/m^3',
(PID.TID 0000.0001) > PTRACERS_units( 38) = 'mmol C/m^3',
(PID.TID 0000.0001) > PTRACERS_units( 39) = 'mmol C/m^3',
(PID.TID 0000.0001) > PTRACERS_units( 40) = 'mmol C/m^3',
(PID.TID 0000.0001) > PTRACERS_units( 41) = 'mmol C/m^3',
(PID.TID 0000.0001) > PTRACERS_units( 42) = 'mmol C/m^3',
(PID.TID 0000.0001) > PTRACERS_units( 43) = 'mmol C/m^3',
(PID.TID 0000.0001) > PTRACERS_units( 44) = 'mmol C/m^3',
(PID.TID 0000.0001) > PTRACERS_units( 45) = 'mmol C/m^3',
(PID.TID 0000.0001) > PTRACERS_units( 46) = 'mmol C/m^3',
(PID.TID 0000.0001) > PTRACERS_units( 47) = 'mmol C/m^3',
(PID.TID 0000.0001) > PTRACERS_units( 48) = 'mmol C/m^3',
(PID.TID 0000.0001) > PTRACERS_units( 49) = 'mmol C/m^3',
(PID.TID 0000.0001) > PTRACERS_units( 50) = 'mmol C/m^3',
(PID.TID 0000.0001) > PTRACERS_units( 51) = 'mmol C/m^3',
(PID.TID 0000.0001) > PTRACERS_units( 52) = 'mmol C/m^3',
(PID.TID 0000.0001) > PTRACERS_units( 53) = 'mmol C/m^3',
(PID.TID 0000.0001) > PTRACERS_units( 54) = 'mmol C/m^3',
(PID.TID 0000.0001) > PTRACERS_units( 55) = 'mmol C/m^3',
(PID.TID 0000.0001) > PTRACERS_units( 56) = 'mmol C/m^3',
(PID.TID 0000.0001) > PTRACERS_units( 57) = 'mmol C/m^3',
(PID.TID 0000.0001) > PTRACERS_units( 58) = 'mmol C/m^3',
(PID.TID 0000.0001) > PTRACERS_units( 59) = 'mmol C/m^3',
(PID.TID 0000.0001) > PTRACERS_units( 60) = 'mmol C/m^3',
(PID.TID 0000.0001) > PTRACERS_units( 61) = 'mmol C/m^3',
(PID.TID 0000.0001) > PTRACERS_units( 62) = 'mmol C/m^3',
(PID.TID 0000.0001) > PTRACERS_units( 63) = 'mmol C/m^3',
(PID.TID 0000.0001) > PTRACERS_units( 64) = 'mmol C/m^3',
(PID.TID 0000.0001) > PTRACERS_units( 65) = 'mmol C/m^3',
(PID.TID 0000.0001) > PTRACERS_units( 66) = 'mmol C/m^3',
(PID.TID 0000.0001) > PTRACERS_units( 67) = 'mmol C/m^3',
(PID.TID 0000.0001) > PTRACERS_units( 68) = 'mmol C/m^3',
(PID.TID 0000.0001) > PTRACERS_units( 69) = 'mmol C/m^3',
(PID.TID 0000.0001) > PTRACERS_units( 70) = 'mmol C/m^3',
(PID.TID 0000.0001) > PTRACERS_units( 71) = 'mg Chl a/m^3',
(PID.TID 0000.0001) > PTRACERS_units( 72) = 'mg Chl a/m^3',
(PID.TID 0000.0001) > PTRACERS_units( 73) = 'mg Chl a/m^3',
(PID.TID 0000.0001) > PTRACERS_units( 74) = 'mg Chl a/m^3',
(PID.TID 0000.0001) > PTRACERS_units( 75) = 'mg Chl a/m^3',
(PID.TID 0000.0001) > PTRACERS_units( 76) = 'mg Chl a/m^3',
(PID.TID 0000.0001) > PTRACERS_units( 77) = 'mg Chl a/m^3',
(PID.TID 0000.0001) > PTRACERS_units( 78) = 'mg Chl a/m^3',
(PID.TID 0000.0001) > PTRACERS_units( 79) = 'mg Chl a/m^3',
(PID.TID 0000.0001) > PTRACERS_units( 80) = 'mg Chl a/m^3',
(PID.TID 0000.0001) > PTRACERS_units( 81) = 'mg Chl a/m^3',
(PID.TID 0000.0001) > PTRACERS_units( 82) = 'mg Chl a/m^3',
(PID.TID 0000.0001) > PTRACERS_units( 83) = 'mg Chl a/m^3',
(PID.TID 0000.0001) > PTRACERS_units( 84) = 'mg Chl a/m^3',
(PID.TID 0000.0001) > PTRACERS_units( 85) = 'mg Chl a/m^3',
(PID.TID 0000.0001) > PTRACERS_units( 86) = 'mg Chl a/m^3',
(PID.TID 0000.0001) > PTRACERS_units( 87) = 'mg Chl a/m^3',
(PID.TID 0000.0001) > PTRACERS_units( 88) = 'mg Chl a/m^3',
(PID.TID 0000.0001) > PTRACERS_units( 89) = 'mg Chl a/m^3',
(PID.TID 0000.0001) > PTRACERS_units( 90) = 'mg Chl a/m^3',
(PID.TID 0000.0001) > PTRACERS_units( 91) = 'mg Chl a/m^3',
(PID.TID 0000.0001) > PTRACERS_units( 92) = 'mg Chl a/m^3',
(PID.TID 0000.0001) > PTRACERS_units( 93) = 'mg Chl a/m^3',
(PID.TID 0000.0001) > PTRACERS_units( 94) = 'mg Chl a/m^3',
(PID.TID 0000.0001) > PTRACERS_units( 95) = 'mg Chl a/m^3',
(PID.TID 0000.0001) > PTRACERS_units( 96) = 'mg Chl a/m^3',
(PID.TID 0000.0001) > PTRACERS_units( 97) = 'mg Chl a/m^3',
(PID.TID 0000.0001) > PTRACERS_units( 98) = 'mg Chl a/m^3',
(PID.TID 0000.0001) > PTRACERS_units( 99) = 'mg Chl a/m^3',
(PID.TID 0000.0001) > PTRACERS_units(100) = 'mg Chl a/m^3',
(PID.TID 0000.0001) > PTRACERS_units(101) = 'mg Chl a/m^3',
(PID.TID 0000.0001) > PTRACERS_initialFile(  1:70) = 70*' ',
(PID.TID 0000.0001) > PTRACERS_ref( :,1) = 19206.861,
(PID.TID 0000.0001) > PTRACERS_ref( :,2) = 31.075087,
(PID.TID 0000.0001) > PTRACERS_ref( :,3) = 1.897909,
(PID.TID 0000.0001) > PTRACERS_ref( :,4) = 0.0879983,
(PID.TID 0000.0001) > PTRACERS_ref( :,5) = 3.6971335,
(PID.TID 0000.0001) > PTRACERS_ref( :,6) = 0.0017434966,
(PID.TID 0000.0001) > PTRACERS_ref( :,7) = 41.282402,
(PID.TID 0000.0001) > PTRACERS_ref( :,8) = 2.6239047,
(PID.TID 0000.0001) > PTRACERS_ref( :,9) = 0.34985393,
(PID.TID 0000.0001) > PTRACERS_ref( :,10) = 0.02186587,
(PID.TID 0000.0001) > PTRACERS_ref( :,11) = 0.0001675493,
(PID.TID 0000.0001) > PTRACERS_ref( :,12) = 2.6020339,
(PID.TID 0000.0001) > PTRACERS_ref( :,13) = 0.34693784,
(PID.TID 0000.0001) > PTRACERS_ref( :,14) = 0.021683615,
(PID.TID 0000.0001) > PTRACERS_ref( :,15) = 2.1684291e-5,
(PID.TID 0000.0001) > PTRACERS_ref( :,16) = 0.1579746,
(PID.TID 0000.0001) > PTRACERS_ref( :,17) = 1.1256928,
(PID.TID 0000.0001) > PTRACERS_ref( :,19) = 2618.1406,
(PID.TID 0000.0001) > PTRACERS_ref( :,21) = 0.00036909597,
(PID.TID 0000.0001) > PTRACERS_ref( :,22) = 0.03993426,
(PID.TID 0000.0001) > PTRACERS_ref( :,23) = 0,
(PID.TID 0000.0001) > PTRACERS_ref( :,24) = 0,
(PID.TID 0000.0001) > PTRACERS_ref( :,25) = 0,
(PID.TID 0000.0001) > PTRACERS_ref( :,26) = 0,
(PID.TID 0000.0001) > PTRACERS_ref( :,27) = 0,
(PID.TID 0000.0001) > PTRACERS_ref( :,28) = 0,
(PID.TID 0000.0001) > PTRACERS_ref( :,29) = 0,
(PID.TID 0000.0001) > PTRACERS_ref( :,30) = 0,
(PID.TID 0000.0001) > PTRACERS_ref( :,31) = 0,
(PID.TID 0000.0001) > PTRACERS_ref( :,32) = 0,
(PID.TID 0000.0001) > PTRACERS_ref( :,33) = 0,
(PID.TID 0000.0001) > PTRACERS_ref( :,34) = 0,
(PID.TID 0000.0001) > PTRACERS_ref( :,35) = 0,
(PID.TID 0000.0001) > PTRACERS_ref( :,36) = 0,
(PID.TID 0000.0001) > PTRACERS_ref( :,37) = 0,
(PID.TID 0000.0001) > PTRACERS_ref( :,38) = 0,
(PID.TID 0000.0001) > PTRACERS_ref( :,39) = 0,
(PID.TID 0000.0001) > PTRACERS_ref( :,40) = 0,
(PID.TID 0000.0001) > PTRACERS_ref( :,41) = 0,
(PID.TID 0000.0001) > PTRACERS_ref( :,42) = 0,
(PID.TID 0000.0001) > PTRACERS_ref( :,43) = 0,
(PID.TID 0000.0001) > PTRACERS_ref( :,44) = 0,
(PID.TID 0000.0001) > PTRACERS_ref( :,45) = 0,
(PID.TID 0000.0001) > PTRACERS_ref( :,46) = 0,
(PID.TID 0000.0001) > PTRACERS_ref( :,47) = 0,
(PID.TID 0000.0001) > PTRACERS_ref( :,48) = 0,
(PID.TID 0000.0001) > PTRACERS_ref( :,49) = 0,
(PID.TID 0000.0001) > PTRACERS_ref( :,50) = 0,
(PID.TID 0000.0001) > PTRACERS_ref( :,51) = 0,
(PID.TID 0000.0001) > PTRACERS_ref( :,52) = 0,
(PID.TID 0000.0001) > PTRACERS_ref( :,53) = 9.610714e-8,
(PID.TID 0000.0001) > PTRACERS_ref( :,54) = 4.3633496e-5,
(PID.TID 0000.0001) > PTRACERS_ref( :,55) = 0,
(PID.TID 0000.0001) > PTRACERS_ref( :,56) = 0,
(PID.TID 0000.0001) > PTRACERS_ref( :,57) = 0,
(PID.TID 0000.0001) > PTRACERS_ref( :,58) = 0,
(PID.TID 0000.0001) > PTRACERS_ref( :,59) = 0,
(PID.TID 0000.0001) > PTRACERS_ref( :,60) = 0,
(PID.TID 0000.0001) > PTRACERS_ref( :,61) = 0,
(PID.TID 0000.0001) > PTRACERS_ref( :,62) = 0,
(PID.TID 0000.0001) > PTRACERS_ref( :,63) = 0,
(PID.TID 0000.0001) > PTRACERS_ref( :,64) = 0,
(PID.TID 0000.0001) > PTRACERS_ref( :,65) = 0,
(PID.TID 0000.0001) > PTRACERS_ref( :,66) = 0,
(PID.TID 0000.0001) > PTRACERS_ref( :,67) = 0,
(PID.TID 0000.0001) > PTRACERS_ref( :,68) = 0,
(PID.TID 0000.0001) > PTRACERS_ref( :,69) = 0,
(PID.TID 0000.0001) > PTRACERS_ref( :,70) = 0,
(PID.TID 0000.0001) > PTRACERS_ref( :,20) = 0.00875726,
(PID.TID 0000.0001) > /
(PID.TID 0000.0001) >
(PID.TID 0000.0001) 
(PID.TID 0000.0001)  PTRACERS_READPARMS: finished reading data.ptracers
(PID.TID 0000.0001)  GCHEM_READPARMS: opening data.gchem
(PID.TID 0000.0001)  OPEN_COPY_DATA_FILE: opening file data.gchem
(PID.TID 0000.0001) // =======================================================
(PID.TID 0000.0001) // Parameter file "data.gchem"
(PID.TID 0000.0001) // =======================================================
(PID.TID 0000.0001) > &GCHEM_PARM01
(PID.TID 0000.0001) > useDARWIN = .TRUE.,
(PID.TID 0000.0001) > nsubtime = 1,
(PID.TID 0000.0001) > /
(PID.TID 0000.0001) >
(PID.TID 0000.0001) 
(PID.TID 0000.0001)  GCHEM_READPARMS: finished reading data.gchem
(PID.TID 0000.0001)  DARWIN_READPARMS: opening data.darwin
(PID.TID 0000.0001)  OPEN_COPY_DATA_FILE: opening file data.darwin
(PID.TID 0000.0001) // =======================================================
(PID.TID 0000.0001) // Parameter file "data.darwin"
(PID.TID 0000.0001) // =======================================================
(PID.TID 0000.0001) > &DARWIN_FORCING_PARAMS
(PID.TID 0000.0001) > ironPeriod = -12.0,
(PID.TID 0000.0001) > darwin_inscal_iron = 1000.0,
(PID.TID 0000.0001) > windPeriod = -12.0,
(PID.TID 0000.0001) > icestartdate1 = 19990101,
(PID.TID 0000.0001) > icestartdate2 = 120000,
(PID.TID 0000.0001) > iceperiod = 86400.0,
(PID.TID 0000.0001) > pco2const = 0.000278,
(PID.TID 0000.0001) > /
(PID.TID 0000.0001) >
(PID.TID 0000.0001) > &DARWIN_PARAMS
(PID.TID 0000.0001) > darwin_chlInitBalanced = .TRUE.,
(PID.TID 0000.0001) > diaz_ini_fac = 0.1,
(PID.TID 0000.0001) > idebug = 271,
(PID.TID 0000.0001) > jdebug = 63,
(PID.TID 0000.0001) > darwin_seed = 56,
(PID.TID 0000.0001) > tempCoeffArr = 1.0,
(PID.TID 0000.0001) > PARmin = 0.1,
(PID.TID 0000.0001) > alpfe = 1.0,
(PID.TID 0000.0001) > freefemax = 0.0001,
(PID.TID 0000.0001) > depthfesed = 7000.0,
(PID.TID 0000.0001) > scav_rat = 0.2,
(PID.TID 0000.0001) > scav_inter = 9.14351851851e-7,
(PID.TID 0000.0001) > scav_r_poppoc = 0.786161635,
(PID.TID 0000.0001) > kdoc = 5.0e-8,
(PID.TID 0000.0001) > kdop = 5.0e-8,
(PID.TID 0000.0001) > kdon = 5.0e-8,
(PID.TID 0000.0001) > kdofe = 5.0e-8,
(PID.TID 0000.0001) > kPOC = 3.8580246913580245e-7,
(PID.TID 0000.0001) > kPOP = 3.8580246913580245e-7,
(PID.TID 0000.0001) > kPON = 3.8580246913580245e-7,
(PID.TID 0000.0001) > kPOFe = 3.8580246913580245e-7,
(PID.TID 0000.0001) > kPOSi = 1.5432e-7,
(PID.TID 0000.0001) > phygrazmin = 1.2e-8,
(PID.TID 0000.0001) > hollexp = 1.0,
(PID.TID 0000.0001) > wC_sink = 0.0,
(PID.TID 0000.0001) > wN_sink = 0.0,
(PID.TID 0000.0001) > wP_sink = 0.0,
(PID.TID 0000.0001) > wFe_sink = 0.0,
(PID.TID 0000.0001) > wSi_sink = 0.0,
(PID.TID 0000.0001) > wPIC_sink = 0.0,
(PID.TID 0000.0001) > /
(PID.TID 0000.0001) >
(PID.TID 0000.0001) > &DARWIN_CDOM_PARAMS
(PID.TID 0000.0001) > fracCDOM = 0.02,
(PID.TID 0000.0001) > cdomdegrd = 3.858e-8,
(PID.TID 0000.0001) > CDOMbleach = 1.9329e-6,
(PID.TID 0000.0001) > PARCDOM = 60.0,
(PID.TID 0000.0001) > R_NP_CDOM = 16.0,
(PID.TID 0000.0001) > R_FeP_CDOM = 0.001,
(PID.TID 0000.0001) > R_CP_CDOM = 120.0,
(PID.TID 0000.0001) > CDOMcoeff = 21.0,
(PID.TID 0000.0001) > /
(PID.TID 0000.0001) >
(PID.TID 0000.0001) > &DARWIN_RADTRANS_PARAMS
(PID.TID 0000.0001) > darwin_waterabsorbFile = './optics_water.txt',
(PID.TID 0000.0001) > darwin_phytoabsorbFile = './optics_plankton.txt',
(PID.TID 0000.0001) > darwin_particleabsorbFile = './optics_detritus.txt',
(PID.TID 0000.0001) > darwin_Sdom = 0.0145,
(PID.TID 0000.0001) > darwin_aCDOM_fac = 0.3,
(PID.TID 0000.0001) > darwin_part_size_P = 5.0e-17,
(PID.TID 0000.0001) > darwin_rCDOM = 0.0001,
(PID.TID 0000.0001) > darwin_RPOC = 2.0,
(PID.TID 0000.0001) > darwin_allomSpectra = .TRUE.,
(PID.TID 0000.0001) > darwin_absorpSlope = -0.075,
(PID.TID 0000.0001) > darwin_bbbSlope = -1.458,
(PID.TID 0000.0001) > darwin_scatSwitchSizeLog = 0.2860959,
(PID.TID 0000.0001) > 0.2923177,
(PID.TID 0000.0001) > 0.2983251,
(PID.TID 0000.0001) > 0.3140574,
(PID.TID 0000.0001) > 0.3261153,
(PID.TID 0000.0001) > 0.3440134,
(PID.TID 0000.0001) > 0.357767,
(PID.TID 0000.0001) > 0.3618763,
(PID.TID 0000.0001) > 0.36951,
(PID.TID 0000.0001) > 0.3718916,
(PID.TID 0000.0001) > 0.3706202,
(PID.TID 0000.0001) > 0.3640583,
(PID.TID 0000.0001) > 0.3682107,
(PID.TID 0000.0001) > darwin_scatSlopeSmall = 4.185404,
(PID.TID 0000.0001) > 4.208007,
(PID.TID 0000.0001) > 4.261307,
(PID.TID 0000.0001) > 4.302451,
(PID.TID 0000.0001) > 4.341968,
(PID.TID 0000.0001) > 4.373109,
(PID.TID 0000.0001) > 4.39232,
(PID.TID 0000.0001) > 4.416705,
(PID.TID 0000.0001) > 4.434653,
(PID.TID 0000.0001) > 4.454953,
(PID.TID 0000.0001) > 4.479809,
(PID.TID 0000.0001) > 4.507577,
(PID.TID 0000.0001) > 4.544071,
(PID.TID 0000.0001) > darwin_scatSlopeLarge = 1.723153,
(PID.TID 0000.0001) > 1.718186,
(PID.TID 0000.0001) > 1.699666,
(PID.TID 0000.0001) > 1.687533,
(PID.TID 0000.0001) > 1.710736,
(PID.TID 0000.0001) > 1.732242,
(PID.TID 0000.0001) > 1.763117,
(PID.TID 0000.0001) > 1.811451,
(PID.TID 0000.0001) > 1.834619,
(PID.TID 0000.0001) > 1.863836,
(PID.TID 0000.0001) > 1.897289,
(PID.TID 0000.0001) > 1.861866,
(PID.TID 0000.0001) > 1.907367,
(PID.TID 0000.0001) > /
(PID.TID 0000.0001) >
(PID.TID 0000.0001) > &DARWIN_RANDOM_PARAMS
(PID.TID 0000.0001) > /
(PID.TID 0000.0001) >
(PID.TID 0000.0001) > &DARWIN_TRAIT_PARAMS
(PID.TID 0000.0001) > grp_names = 'Pro',
(PID.TID 0000.0001) > 'Syn',
(PID.TID 0000.0001) > 'PicoEuk',
(PID.TID 0000.0001) > 'Cocco',
(PID.TID 0000.0001) > 'Diazo',
(PID.TID 0000.0001) > 'Tricho',
(PID.TID 0000.0001) > 'Diatom',
(PID.TID 0000.0001) > 'Dino',
(PID.TID 0000.0001) > 'Zoo',
(PID.TID 0000.0001) > 'Bact',
(PID.TID 0000.0001) > grp_nplank(:) = 1,
(PID.TID 0000.0001) > 1,
(PID.TID 0000.0001) > 2,
(PID.TID 0000.0001) > 5,
(PID.TID 0000.0001) > 4,
(PID.TID 0000.0001) > 1,
(PID.TID 0000.0001) > 9,
(PID.TID 0000.0001) > 8,
(PID.TID 0000.0001) > 16,
(PID.TID 0000.0001) > 3,
(PID.TID 0000.0001) > grp_photo(:) = 1,
(PID.TID 0000.0001) > 1,
(PID.TID 0000.0001) > 1,
(PID.TID 0000.0001) > 1,
(PID.TID 0000.0001) > 1,
(PID.TID 0000.0001) > 1,
(PID.TID 0000.0001) > 1,
(PID.TID 0000.0001) > 1,
(PID.TID 0000.0001) > 0,
(PID.TID 0000.0001) > 0,
(PID.TID 0000.0001) > grp_pred(:) = 0,
(PID.TID 0000.0001) > 0,
(PID.TID 0000.0001) > 0,
(PID.TID 0000.0001) > 0,
(PID.TID 0000.0001) > 0,
(PID.TID 0000.0001) > 0,
(PID.TID 0000.0001) > 0,
(PID.TID 0000.0001) > 1,
(PID.TID 0000.0001) > 1,
(PID.TID 0000.0001) > 0,
(PID.TID 0000.0001) > grp_prey(:) = 1,
(PID.TID 0000.0001) > 1,
(PID.TID 0000.0001) > 1,
(PID.TID 0000.0001) > 1,
(PID.TID 0000.0001) > 1,
(PID.TID 0000.0001) > 1,
(PID.TID 0000.0001) > 1,
(PID.TID 0000.0001) > 1,
(PID.TID 0000.0001) > 1,
(PID.TID 0000.0001) > 1,
(PID.TID 0000.0001) > grp_hasSi(:) = 0,
(PID.TID 0000.0001) > 0,
(PID.TID 0000.0001) > 0,
(PID.TID 0000.0001) > 0,
(PID.TID 0000.0001) > 0,
(PID.TID 0000.0001) > 0,
(PID.TID 0000.0001) > 1,
(PID.TID 0000.0001) > 0,
(PID.TID 0000.0001) > 0,
(PID.TID 0000.0001) > 0,
(PID.TID 0000.0001) > grp_hasPIC(:) = 0,
(PID.TID 0000.0001) > 0,
(PID.TID 0000.0001) > 0,
(PID.TID 0000.0001) > 1,
(PID.TID 0000.0001) > 0,
(PID.TID 0000.0001) > 0,
(PID.TID 0000.0001) > 0,
(PID.TID 0000.0001) > 0,
(PID.TID 0000.0001) > 0,
(PID.TID 0000.0001) > 0,
(PID.TID 0000.0001) > grp_DIAZO(:) = 0,
(PID.TID 0000.0001) > 0,
(PID.TID 0000.0001) > 0,
(PID.TID 0000.0001) > 0,
(PID.TID 0000.0001) > 1,
(PID.TID 0000.0001) > 1,
(PID.TID 0000.0001) > 0,
(PID.TID 0000.0001) > 0,
(PID.TID 0000.0001) > 0,
(PID.TID 0000.0001) > 0,
(PID.TID 0000.0001) > grp_useNH4(:) = 1,
(PID.TID 0000.0001) > 1,
(PID.TID 0000.0001) > 1,
(PID.TID 0000.0001) > 1,
(PID.TID 0000.0001) > 1,
(PID.TID 0000.0001) > 1,
(PID.TID 0000.0001) > 1,
(PID.TID 0000.0001) > 1,
(PID.TID 0000.0001) > 0,
(PID.TID 0000.0001) > 0,
(PID.TID 0000.0001) > grp_useNO2(:) = 1,
(PID.TID 0000.0001) > 1,
(PID.TID 0000.0001) > 1,
(PID.TID 0000.0001) > 1,
(PID.TID 0000.0001) > 1,
(PID.TID 0000.0001) > 1,
(PID.TID 0000.0001) > 1,
(PID.TID 0000.0001) > 1,
(PID.TID 0000.0001) > 0,
(PID.TID 0000.0001) > 0,
(PID.TID 0000.0001) > grp_useNO3(:) = 1,
(PID.TID 0000.0001) > 1,
(PID.TID 0000.0001) > 1,
(PID.TID 0000.0001) > 1,
(PID.TID 0000.0001) > 1,
(PID.TID 0000.0001) > 1,
(PID.TID 0000.0001) > 1,
(PID.TID 0000.0001) > 1,
(PID.TID 0000.0001) > 0,
(PID.TID 0000.0001) > 0,
(PID.TID 0000.0001) > grp_combNO(:) = 1,
(PID.TID 0000.0001) > 1,
(PID.TID 0000.0001) > 1,
(PID.TID 0000.0001) > 1,
(PID.TID 0000.0001) > 1,
(PID.TID 0000.0001) > 1,
(PID.TID 0000.0001) > 1,
(PID.TID 0000.0001) > 1,
(PID.TID 0000.0001) > 0,
(PID.TID 0000.0001) > 0,
(PID.TID 0000.0001) > grp_bacttype(:) = 0,
(PID.TID 0000.0001) > 0,
(PID.TID 0000.0001) > 0,
(PID.TID 0000.0001) > 0,
(PID.TID 0000.0001) > 0,
(PID.TID 0000.0001) > 0,
(PID.TID 0000.0001) > 0,
(PID.TID 0000.0001) > 0,
(PID.TID 0000.0001) > 0,
(PID.TID 0000.0001) > 2,
(PID.TID 0000.0001) > grp_aerobic(:) = 0,
(PID.TID 0000.0001) > 0,
(PID.TID 0000.0001) > 0,
(PID.TID 0000.0001) > 0,
(PID.TID 0000.0001) > 0,
(PID.TID 0000.0001) > 0,
(PID.TID 0000.0001) > 0,
(PID.TID 0000.0001) > 0,
(PID.TID 0000.0001) > 0,
(PID.TID 0000.0001) > 1,
(PID.TID 0000.0001) > grp_denit(:) = 0,
(PID.TID 0000.0001) > 0,
(PID.TID 0000.0001) > 0,
(PID.TID 0000.0001) > 0,
(PID.TID 0000.0001) > 0,
(PID.TID 0000.0001) > 0,
(PID.TID 0000.0001) > 0,
(PID.TID 0000.0001) > 0,
(PID.TID 0000.0001) > 0,
(PID.TID 0000.0001) > 0,
(PID.TID 0000.0001) > grp_tempMort(:) = 1,
(PID.TID 0000.0001) > 1,
(PID.TID 0000.0001) > 1,
(PID.TID 0000.0001) > 1,
(PID.TID 0000.0001) > 1,
(PID.TID 0000.0001) > 1,
(PID.TID 0000.0001) > 1,
(PID.TID 0000.0001) > 1,
(PID.TID 0000.0001) > 1,
(PID.TID 0000.0001) > 1,
(PID.TID 0000.0001) > grp_tempMort2(:) = 1,
(PID.TID 0000.0001) > 1,
(PID.TID 0000.0001) > 1,
(PID.TID 0000.0001) > 1,
(PID.TID 0000.0001) > 1,
(PID.TID 0000.0001) > 1,
(PID.TID 0000.0001) > 1,
(PID.TID 0000.0001) > 1,
(PID.TID 0000.0001) > 1,
(PID.TID 0000.0001) > 1,
(PID.TID 0000.0001) > grp_aptype(:) = 4,
(PID.TID 0000.0001) > 2,
(PID.TID 0000.0001) > 1,
(PID.TID 0000.0001) > 6,
(PID.TID 0000.0001) > 8,
(PID.TID 0000.0001) > 7,
(PID.TID 0000.0001) > 5,
(PID.TID 0000.0001) > 9,
(PID.TID 0000.0001) > 11,
(PID.TID 0000.0001) > 12,
(PID.TID 0000.0001) > a_Xmin(:) = 8*0.0,
(PID.TID 0000.0001) > a_phytoTempAe = 2*0.0756,
(PID.TID 0000.0001) > 0.0637,
(PID.TID 0000.0001) > 0.0351,
(PID.TID 0000.0001) > 2*0.0756,
(PID.TID 0000.0001) > 0.0445,
(PID.TID 0000.0001) > 0.0513,
(PID.TID 0000.0001) > a_mQyield(:) = 8*4E-5,
(PID.TID 0000.0001) > a_chl2cmax(:) = 6*.2,
(PID.TID 0000.0001) > 0.3,
(PID.TID 0000.0001) > 0.2,
(PID.TID 0000.0001) > a_acclimtimescl(:) = 8*5.7870370370370370E-6,
(PID.TID 0000.0001) > logvolbase = -1.413,
(PID.TID 0000.0001) > logvolinc = 0.513,
(PID.TID 0000.0001) > logvol0ind(:) = 2,
(PID.TID 0000.0001) > 3,
(PID.TID 0000.0001) > 4,
(PID.TID 0000.0001) > 6,
(PID.TID 0000.0001) > 6,
(PID.TID 0000.0001) > 10,
(PID.TID 0000.0001) > 6,
(PID.TID 0000.0001) > 8,
(PID.TID 0000.0001) > 7,
(PID.TID 0000.0001) > 1,
(PID.TID 0000.0001) > a_biosink(:) = 0.0,
(PID.TID 0000.0001) > b_biosink(:) = 0.0,
(PID.TID 0000.0001) > a_PCmax(1) = 1.1063,
(PID.TID 0000.0001) > a_PCmax(2) = 1.1063,
(PID.TID 0000.0001) > a_PCmax(3) = 1.2066,
(PID.TID 0000.0001) > a_PCmax(4) = 1.9454,
(PID.TID 0000.0001) > a_PCmax(5) = 0.8083,
(PID.TID 0000.0001) > a_PCmax(6) = 0.8083,
(PID.TID 0000.0001) > a_PCmax(7) = 2.5383,
(PID.TID 0000.0001) > a_PCmax(8) = 1.3355,
(PID.TID 0000.0001) > a_PCmax(9) = 0,
(PID.TID 0000.0001) > a_PCmax(10) = 1.1603,
(PID.TID 0000.0001) > a_PCmax_denom(:) = 8*86400.,
(PID.TID 0000.0001) > b_PCmax(:) = 0.28,
(PID.TID 0000.0001) > 0.28,
(PID.TID 0000.0001) > 0.28,
(PID.TID 0000.0001) > -0.1,
(PID.TID 0000.0001) > -0.1,
(PID.TID 0000.0001) > -0.1,
(PID.TID 0000.0001) > -0.1,
(PID.TID 0000.0001) > -0.1,
(PID.TID 0000.0001) > 0.0,
(PID.TID 0000.0001) > 0.28,
(PID.TID 0000.0001) > a_Qpmin = 8*0.005,
(PID.TID 0000.0001) > 0.008,
(PID.TID 0000.0001) > 0.008,
(PID.TID 0000.0001) > a_Qpmax = 8*0.02,
(PID.TID 0000.0001) > 0.01,
(PID.TID 0000.0001) > 0.01,
(PID.TID 0000.0001) > darwin_effective_ksat = .TRUE.,
(PID.TID 0000.0001) > darwin_select_kn_allom = 2,
(PID.TID 0000.0001) > grp_ExportFracPreyPred(1:8,9) = 8*.8,
(PID.TID 0000.0001) > a_R_ChlC(9) = 0.0,
(PID.TID 0000.0001) > a_grazemax(9) = 3.4722e-5,
(PID.TID 0000.0001) > b_grazemax(9) = -0.16,
(PID.TID 0000.0001) > a_mort(:) = 8*8e-07,
(PID.TID 0000.0001) > 2*2e-7,
(PID.TID 0000.0001) > a_mort2(:) = 8*6.e-7,
(PID.TID 0000.0001) > 8.0e-7,
(PID.TID 0000.0001) > ! 16*.6/120/day,
(PID.TID 0000.0001) > a_phytoTempExp2 = 8*.0003,
(PID.TID 0000.0001) > a_R_PC(:) = 10*0.008333333333333333,
(PID.TID 0000.0001) > a_R_FeC(:) = 4*0.008333333333333333E-3,
(PID.TID 0000.0001) > 2*0.03333333333333333E-3,
(PID.TID 0000.0001) > 2*0.008333333333333333E-3,
(PID.TID 0000.0001) > 2*0.008333333333333333E-3,
(PID.TID 0000.0001) > a_R_NC(:) = 4*0.13333333333333333,
(PID.TID 0000.0001) > 2*0.1333333333333333,
(PID.TID 0000.0001) > 3*0.13333333333333333,
(PID.TID 0000.0001) > a_R_SiC(:) = 6*0.,
(PID.TID 0000.0001) > 0.39999999999999997,
(PID.TID 0000.0001) > 3*0.,
(PID.TID 0000.0001) > a_R_PICPOC(:) = 3*0.,
(PID.TID 0000.0001) > 0.8,
(PID.TID 0000.0001) > 6*0.,
(PID.TID 0000.0001) > a_kgrazesat(:) = 8*5.0,
(PID.TID 0000.0001) > 1*5.0,
(PID.TID 0000.0001) > b_kgrazesat(:) = 9*0,
(PID.TID 0000.0001) > grp_ass_eff(:,:) = 100*0.32,
(PID.TID 0000.0001) > /
(PID.TID 0000.0001) >
(PID.TID 0000.0001) 
(PID.TID 0000.0001)  ===================================
(PID.TID 0000.0001) GCHEM_TR_REGISTER:  Start registering GCHEM tracers
(PID.TID 0000.0001)   DARWIN_TR_REGISTER:  number of DARWIN tracers=  101
(PID.TID 0000.0001)   DARWIN_TR_REGISTER:   starting at pTrc num=    1
(PID.TID 0000.0001)   DARWIN_TR_REGISTER:  Numb. Trac & SepForc Trac:  101  101
(PID.TID 0000.0001) GCHEM_TR_REGISTER:  Numb. Trac & SepForc Trac:  101  101
(PID.TID 0000.0001) 
(PID.TID 0000.0001)  OFFLINE_READPARMS: opening data.off
(PID.TID 0000.0001)  OPEN_COPY_DATA_FILE: opening file data.off
(PID.TID 0000.0001) // =======================================================
(PID.TID 0000.0001) // Parameter file "data.off"
(PID.TID 0000.0001) // =======================================================
(PID.TID 0000.0001) > &OFFLINE_PARM01
(PID.TID 0000.0001) > /
(PID.TID 0000.0001) >
(PID.TID 0000.0001) > &end
(PID.TID 0000.0001) > /
(PID.TID 0000.0001) >
(PID.TID 0000.0001) > &OFFLINE_PARM02
(PID.TID 0000.0001) > offlineIter0 = 78912,
(PID.TID 0000.0001) > deltaToffline = 3600.0,
(PID.TID 0000.0001) > offlineForcingPeriod = 86400.0,
(PID.TID 0000.0001) > offlineForcingCycle = 3.1104e7,
(PID.TID 0000.0001) > offlineLoadPrec = 32,
(PID.TID 0000.0001) > /
(PID.TID 0000.0001) >
(PID.TID 0000.0001) > &end
(PID.TID 0000.0001) > /
(PID.TID 0000.0001) >
(PID.TID 0000.0001) 
(PID.TID 0000.0001)  OFFLINE_READPARMS: finished reading data.off
(PID.TID 0000.0001)  DIAGNOSTICS_READPARMS: opening data.diagnostics
(PID.TID 0000.0001)  OPEN_COPY_DATA_FILE: opening file data.diagnostics
(PID.TID 0000.0001) // =======================================================
(PID.TID 0000.0001) // Parameter file "data.diagnostics"
(PID.TID 0000.0001) // =======================================================
(PID.TID 0000.0001) > &diagnostics_list
(PID.TID 0000.0001) > filename( 1) = '3d',
(PID.TID 0000.0001) > frequency(1) = 604800.0,
(PID.TID 0000.0001) > fields( 1,1) = 'TRAC01  ',
(PID.TID 0000.0001) > fields( 2,1) = 'TRAC02  ',
(PID.TID 0000.0001) > fields( 3,1) = 'TRAC03  ',
(PID.TID 0000.0001) > fields( 4,1) = 'TRAC04  ',
(PID.TID 0000.0001) > fields( 5,1) = 'TRAC05  ',
(PID.TID 0000.0001) > fields( 6,1) = 'TRAC06  ',
(PID.TID 0000.0001) > fields( 7,1) = 'TRAC07  ',
(PID.TID 0000.0001) > fields( 8,1) = 'TRAC08  ',
(PID.TID 0000.0001) > fields( 9,1) = 'TRAC09  ',
(PID.TID 0000.0001) > fields(10,1) = 'TRAC10  ',
(PID.TID 0000.0001) > fields(11,1) = 'TRAC11  ',
(PID.TID 0000.0001) > fields(12,1) = 'TRAC12  ',
(PID.TID 0000.0001) > fields(13,1) = 'TRAC13  ',
(PID.TID 0000.0001) > fields(14,1) = 'TRAC14  ',
(PID.TID 0000.0001) > fields(15,1) = 'TRAC15  ',
(PID.TID 0000.0001) > fields(16,1) = 'TRAC16  ',
(PID.TID 0000.0001) > fields(17,1) = 'TRAC17  ',
(PID.TID 0000.0001) > fields(18,1) = 'TRAC18  ',
(PID.TID 0000.0001) > fields(19,1) = 'TRAC19  ',
(PID.TID 0000.0001) > fields(20,1) = 'TRAC20  ',
(PID.TID 0000.0001) > fields(21,1) = 'TRAC21  ',
(PID.TID 0000.0001) > fields(22,1) = 'TRAC22  ',
(PID.TID 0000.0001) > fields(23,1) = 'TRAC23  ',
(PID.TID 0000.0001) > fields(24,1) = 'TRAC24  ',
(PID.TID 0000.0001) > fields(25,1) = 'TRAC25  ',
(PID.TID 0000.0001) > fields(26,1) = 'TRAC26  ',
(PID.TID 0000.0001) > fields(27,1) = 'TRAC27  ',
(PID.TID 0000.0001) > fields(28,1) = 'TRAC28  ',
(PID.TID 0000.0001) > fields(29,1) = 'TRAC29  ',
(PID.TID 0000.0001) > fields(30,1) = 'TRAC30  ',
(PID.TID 0000.0001) > fields(31,1) = 'TRAC31  ',
(PID.TID 0000.0001) > fields(32,1) = 'TRAC32  ',
(PID.TID 0000.0001) > fields(33,1) = 'TRAC33  ',
(PID.TID 0000.0001) > fields(34,1) = 'TRAC34  ',
(PID.TID 0000.0001) > fields(35,1) = 'TRAC35  ',
(PID.TID 0000.0001) > fields(36,1) = 'TRAC36  ',
(PID.TID 0000.0001) > fields(37,1) = 'TRAC37  ',
(PID.TID 0000.0001) > fields(38,1) = 'TRAC38  ',
(PID.TID 0000.0001) > fields(39,1) = 'TRAC39  ',
(PID.TID 0000.0001) > fields(40,1) = 'TRAC40  ',
(PID.TID 0000.0001) > fields(41,1) = 'TRAC41  ',
(PID.TID 0000.0001) > fields(42,1) = 'TRAC42  ',
(PID.TID 0000.0001) > fields(43,1) = 'TRAC43  ',
(PID.TID 0000.0001) > fields(44,1) = 'TRAC44  ',
(PID.TID 0000.0001) > fields(45,1) = 'TRAC45  ',
(PID.TID 0000.0001) > fields(46,1) = 'TRAC46  ',
(PID.TID 0000.0001) > fields(47,1) = 'TRAC47  ',
(PID.TID 0000.0001) > fields(48,1) = 'TRAC48  ',
(PID.TID 0000.0001) > fields(49,1) = 'TRAC49  ',
(PID.TID 0000.0001) > fields(50,1) = 'TRAC50  ',
(PID.TID 0000.0001) > fields(51,1) = 'TRAC51  ',
(PID.TID 0000.0001) > fields(52,1) = 'TRAC52  ',
(PID.TID 0000.0001) > fields(53,1) = 'TRAC53  ',
(PID.TID 0000.0001) > fields(54,1) = 'TRAC54  ',
(PID.TID 0000.0001) > fields(55,1) = 'TRAC55  ',
(PID.TID 0000.0001) > fields(56,1) = 'TRAC56  ',
(PID.TID 0000.0001) > fields(57,1) = 'TRAC57  ',
(PID.TID 0000.0001) > fields(58,1) = 'TRAC58  ',
(PID.TID 0000.0001) > fields(59,1) = 'TRAC59  ',
(PID.TID 0000.0001) > fields(60,1) = 'TRAC60  ',
(PID.TID 0000.0001) > fields(61,1) = 'TRAC61  ',
(PID.TID 0000.0001) > fields(62,1) = 'TRAC62  ',
(PID.TID 0000.0001) > fields(63,1) = 'TRAC63  ',
(PID.TID 0000.0001) > fields(64,1) = 'TRAC64  ',
(PID.TID 0000.0001) > fields(65,1) = 'TRAC65  ',
(PID.TID 0000.0001) > fields(66,1) = 'TRAC66  ',
(PID.TID 0000.0001) > fields(67,1) = 'TRAC67  ',
(PID.TID 0000.0001) > fields(68,1) = 'TRAC68  ',
(PID.TID 0000.0001) > fields(69,1) = 'TRAC69  ',
(PID.TID 0000.0001) > fields(70,1) = 'TRAC70  ',
(PID.TID 0000.0001) > fields(73,1) = 'PP      ',
(PID.TID 0000.0001) > fields(74,1) = 'Nfix    ',
(PID.TID 0000.0001) > fields(75,1) = 'Denit   ',
(PID.TID 0000.0001) > fields(76,1) = 'pH      ',
(PID.TID 0000.0001) > fields(77,1) = 'pCO2    ',
(PID.TID 0000.0001) > filename( 2) = 'chl',
(PID.TID 0000.0001) > frequency(2) = 604800.0,
(PID.TID 0000.0001) > fields( 1,2) = 'TRAC71  ',
(PID.TID 0000.0001) > fields( 2,2) = 'TRAC72  ',
(PID.TID 0000.0001) > fields( 3,2) = 'TRAC73  ',
(PID.TID 0000.0001) > fields( 4,2) = 'TRAC74  ',
(PID.TID 0000.0001) > fields( 5,2) = 'TRAC75  ',
(PID.TID 0000.0001) > fields( 6,2) = 'TRAC76  ',
(PID.TID 0000.0001) > fields( 7,2) = 'TRAC77  ',
(PID.TID 0000.0001) > fields( 8,2) = 'TRAC78  ',
(PID.TID 0000.0001) > fields( 9,2) = 'TRAC79  ',
(PID.TID 0000.0001) > fields(10,2) = 'TRAC80  ',
(PID.TID 0000.0001) > fields(11,2) = 'TRAC81  ',
(PID.TID 0000.0001) > fields(12,2) = 'TRAC82  ',
(PID.TID 0000.0001) > fields(13,2) = 'TRAC83  ',
(PID.TID 0000.0001) > fields(14,2) = 'TRAC84  ',
(PID.TID 0000.0001) > fields(15,2) = 'TRAC85  ',
(PID.TID 0000.0001) > fields(16,2) = 'TRAC86  ',
(PID.TID 0000.0001) > fields(17,2) = 'TRAC87  ',
(PID.TID 0000.0001) > fields(18,2) = 'TRAC88  ',
(PID.TID 0000.0001) > fields(19,2) = 'TRAC89  ',
(PID.TID 0000.0001) > fields(20,2) = 'TRAC90  ',
(PID.TID 0000.0001) > fields(21,2) = 'TRAC91  ',
(PID.TID 0000.0001) > fields(22,2) = 'TRAC92  ',
(PID.TID 0000.0001) > fields(23,2) = 'TRAC93  ',
(PID.TID 0000.0001) > fields(24,2) = 'TRAC94  ',
(PID.TID 0000.0001) > fields(25,2) = 'TRAC95  ',
(PID.TID 0000.0001) > fields(26,2) = 'TRAC96  ',
(PID.TID 0000.0001) > fields(27,2) = 'TRAC97  ',
(PID.TID 0000.0001) > fields(28,2) = 'TRAC98  ',
(PID.TID 0000.0001) > fields(29,2) = 'TRAC99  ',
(PID.TID 0000.0001) > fields(30,2) = 'TRAC0a  ',
(PID.TID 0000.0001) > fields(31,2) = 'TRAC0b  ',
(PID.TID 0000.0001) > filename( 4) = 'par',
(PID.TID 0000.0001) > frequency(4) = 604800.0,
(PID.TID 0000.0001) > fields(  1,4) = 'Ed001   ',
(PID.TID 0000.0001) > fields(  2,4) = 'Ed002   ',
(PID.TID 0000.0001) > fields(  3,4) = 'Ed003   ',
(PID.TID 0000.0001) > fields(  4,4) = 'Ed004   ',
(PID.TID 0000.0001) > fields(  5,4) = 'Ed005   ',
(PID.TID 0000.0001) > fields(  6,4) = 'Ed006   ',
(PID.TID 0000.0001) > fields(  7,4) = 'Ed007   ',
(PID.TID 0000.0001) > fields(  8,4) = 'Ed008   ',
(PID.TID 0000.0001) > fields(  9,4) = 'Ed009   ',
(PID.TID 0000.0001) > fields( 10,4) = 'Ed010   ',
(PID.TID 0000.0001) > fields( 11,4) = 'Ed011   ',
(PID.TID 0000.0001) > fields( 12,4) = 'Ed012   ',
(PID.TID 0000.0001) > fields( 13,4) = 'Ed013   ',
(PID.TID 0000.0001) > fields( 14,4) = 'Es001   ',
(PID.TID 0000.0001) > fields( 15,4) = 'Es002   ',
(PID.TID 0000.0001) > fields( 16,4) = 'Es003   ',
(PID.TID 0000.0001) > fields( 17,4) = 'Es004   ',
(PID.TID 0000.0001) > fields( 18,4) = 'Es005   ',
(PID.TID 0000.0001) > fields( 19,4) = 'Es006   ',
(PID.TID 0000.0001) > fields( 20,4) = 'Es007   ',
(PID.TID 0000.0001) > fields( 21,4) = 'Es008   ',
(PID.TID 0000.0001) > fields( 22,4) = 'Es009   ',
(PID.TID 0000.0001) > fields( 23,4) = 'Es010   ',
(PID.TID 0000.0001) > fields( 24,4) = 'Es011   ',
(PID.TID 0000.0001) > fields( 25,4) = 'Es012   ',
(PID.TID 0000.0001) > fields( 26,4) = 'Es013   ',
(PID.TID 0000.0001) > fields( 27,4) = 'Eu001   ',
(PID.TID 0000.0001) > fields( 28,4) = 'Eu002   ',
(PID.TID 0000.0001) > fields( 29,4) = 'Eu003   ',
(PID.TID 0000.0001) > fields( 30,4) = 'Eu004   ',
(PID.TID 0000.0001) > fields( 31,4) = 'Eu005   ',
(PID.TID 0000.0001) > fields( 32,4) = 'Eu006   ',
(PID.TID 0000.0001) > fields( 33,4) = 'Eu007   ',
(PID.TID 0000.0001) > fields( 34,4) = 'Eu008   ',
(PID.TID 0000.0001) > fields( 35,4) = 'Eu009   ',
(PID.TID 0000.0001) > fields( 36,4) = 'Eu010   ',
(PID.TID 0000.0001) > fields( 37,4) = 'Eu011   ',
(PID.TID 0000.0001) > fields( 38,4) = 'Eu012   ',
(PID.TID 0000.0001) > fields( 39,4) = 'Eu013   ',
(PID.TID 0000.0001) > fields( 40,4) = 'PAR001  ',
(PID.TID 0000.0001) > fields( 41,4) = 'PAR002  ',
(PID.TID 0000.0001) > fields( 42,4) = 'PAR003  ',
(PID.TID 0000.0001) > fields( 43,4) = 'PAR004  ',
(PID.TID 0000.0001) > fields( 44,4) = 'PAR005  ',
(PID.TID 0000.0001) > fields( 45,4) = 'PAR006  ',
(PID.TID 0000.0001) > fields( 46,4) = 'PAR007  ',
(PID.TID 0000.0001) > fields( 47,4) = 'PAR008  ',
(PID.TID 0000.0001) > fields( 48,4) = 'PAR009  ',
(PID.TID 0000.0001) > fields( 49,4) = 'PAR010  ',
(PID.TID 0000.0001) > fields( 50,4) = 'PAR011  ',
(PID.TID 0000.0001) > fields( 51,4) = 'PAR012  ',
(PID.TID 0000.0001) > fields( 52,4) = 'PAR013  ',
(PID.TID 0000.0001) > filename( 5) = 'nutr_tend',
(PID.TID 0000.0001) > frequency(5) = 604800.0,
(PID.TID 0000.0001) > fields( 1,5) = 'Tp_gTr01  ',
(PID.TID 0000.0001) > fields( 2,5) = 'Tp_gTr02  ',
(PID.TID 0000.0001) > fields( 3,5) = 'Tp_gTr03  ',
(PID.TID 0000.0001) > fields( 4,5) = 'Tp_gTr04  ',
(PID.TID 0000.0001) > fields( 5,5) = 'Tp_gTr05  ',
(PID.TID 0000.0001) > fields( 6,5) = 'Tp_gTr06  ',
(PID.TID 0000.0001) > fields( 7,5) = 'Tp_gTr07  ',
(PID.TID 0000.0001) > fields( 8,5) = 'gDAR01  ',
(PID.TID 0000.0001) > fields( 9,5) = 'gDAR02  ',
(PID.TID 0000.0001) > fields(10,5) = 'gDAR03  ',
(PID.TID 0000.0001) > fields(11,5) = 'gDAR04  ',
(PID.TID 0000.0001) > fields(12,5) = 'gDAR05  ',
(PID.TID 0000.0001) > fields(13,5) = 'gDAR06  ',
(PID.TID 0000.0001) > fields(14,5) = 'gDAR07  ',
(PID.TID 0000.0001) > fields(15,5) = 'S_DIN   ',
(PID.TID 0000.0001) > fields(16,5) = 'S_PO4   ',
(PID.TID 0000.0001) > fields(17,5) = 'S_Si    ',
(PID.TID 0000.0001) > fields(18,5) = 'S_Fe    ',
(PID.TID 0000.0001) > filename( 6) = '2d',
(PID.TID 0000.0001) > frequency(6) = 604800.0,
(PID.TID 0000.0001) > fields( 1,6) = 'fluxCO2 ',
(PID.TID 0000.0001) > fields( 2,6) = 'gDICsurf',
(PID.TID 0000.0001) > fields( 3,6) = 'gALKsurf',
(PID.TID 0000.0001) > fields( 4,6) = 'gO2surf ',
(PID.TID 0000.0001) > filename( 7) = 'PP',
(PID.TID 0000.0001) > frequency(7) = 604800.0,
(PID.TID 0000.0001) > fields(  1,7) = 'PP0001  ',
(PID.TID 0000.0001) > fields(  2,7) = 'PP0002  ',
(PID.TID 0000.0001) > fields(  3,7) = 'PP0003  ',
(PID.TID 0000.0001) > fields(  4,7) = 'PP0004  ',
(PID.TID 0000.0001) > fields(  5,7) = 'PP0005  ',
(PID.TID 0000.0001) > fields(  6,7) = 'PP0006  ',
(PID.TID 0000.0001) > fields(  7,7) = 'PP0007  ',
(PID.TID 0000.0001) > fields(  8,7) = 'PP0008  ',
(PID.TID 0000.0001) > fields(  9,7) = 'PP0009  ',
(PID.TID 0000.0001) > fields( 10,7) = 'PP0010  ',
(PID.TID 0000.0001) > fields( 11,7) = 'PP0011  ',
(PID.TID 0000.0001) > fields( 12,7) = 'PP0012  ',
(PID.TID 0000.0001) > fields( 13,7) = 'PP0013  ',
(PID.TID 0000.0001) > fields( 14,7) = 'PP0014  ',
(PID.TID 0000.0001) > fields( 15,7) = 'PP0015  ',
(PID.TID 0000.0001) > fields( 16,7) = 'PP0016  ',
(PID.TID 0000.0001) > fields( 17,7) = 'PP0017  ',
(PID.TID 0000.0001) > fields( 18,7) = 'PP0018  ',
(PID.TID 0000.0001) > fields( 19,7) = 'PP0019  ',
(PID.TID 0000.0001) > fields( 20,7) = 'PP0020  ',
(PID.TID 0000.0001) > fields( 21,7) = 'PP0021  ',
(PID.TID 0000.0001) > fields( 22,7) = 'PP0022  ',
(PID.TID 0000.0001) > fields( 23,7) = 'PP0023  ',
(PID.TID 0000.0001) > fields( 24,7) = 'PP0024  ',
(PID.TID 0000.0001) > fields( 25,7) = 'PP0025  ',
(PID.TID 0000.0001) > fields( 26,7) = 'PP0026  ',
(PID.TID 0000.0001) > fields( 27,7) = 'PP0027  ',
(PID.TID 0000.0001) > fields( 28,7) = 'PP0028  ',
(PID.TID 0000.0001) > fields( 29,7) = 'PP0029  ',
(PID.TID 0000.0001) > fields( 30,7) = 'PP0030  ',
(PID.TID 0000.0001) > fields( 31,7) = 'PP0031  ',
(PID.TID 0000.0001) > filename( 8) = 'GR',
(PID.TID 0000.0001) > frequency(8) = 604800.0,
(PID.TID 0000.0001) > fields(  1,8) = 'GR0001  ',
(PID.TID 0000.0001) > fields(  2,8) = 'GR0002  ',
(PID.TID 0000.0001) > fields(  3,8) = 'GR0003  ',
(PID.TID 0000.0001) > fields(  4,8) = 'GR0004  ',
(PID.TID 0000.0001) > fields(  5,8) = 'GR0005  ',
(PID.TID 0000.0001) > fields(  6,8) = 'GR0006  ',
(PID.TID 0000.0001) > fields(  7,8) = 'GR0007  ',
(PID.TID 0000.0001) > fields(  8,8) = 'GR0008  ',
(PID.TID 0000.0001) > fields(  9,8) = 'GR0009  ',
(PID.TID 0000.0001) > fields( 10,8) = 'GR0010  ',
(PID.TID 0000.0001) > fields( 11,8) = 'GR0011  ',
(PID.TID 0000.0001) > fields( 12,8) = 'GR0012  ',
(PID.TID 0000.0001) > fields( 13,8) = 'GR0013  ',
(PID.TID 0000.0001) > fields( 14,8) = 'GR0014  ',
(PID.TID 0000.0001) > fields( 15,8) = 'GR0015  ',
(PID.TID 0000.0001) > fields( 16,8) = 'GR0016  ',
(PID.TID 0000.0001) > fields( 17,8) = 'GR0017  ',
(PID.TID 0000.0001) > fields( 18,8) = 'GR0018  ',
(PID.TID 0000.0001) > fields( 19,8) = 'GR0019  ',
(PID.TID 0000.0001) > fields( 20,8) = 'GR0020  ',
(PID.TID 0000.0001) > fields( 21,8) = 'GR0021  ',
(PID.TID 0000.0001) > fields( 22,8) = 'GR0022  ',
(PID.TID 0000.0001) > fields( 23,8) = 'GR0023  ',
(PID.TID 0000.0001) > fields( 24,8) = 'GR0024  ',
(PID.TID 0000.0001) > fields( 25,8) = 'GR0025  ',
(PID.TID 0000.0001) > fields( 26,8) = 'GR0026  ',
(PID.TID 0000.0001) > fields( 27,8) = 'GR0027  ',
(PID.TID 0000.0001) > fields( 28,8) = 'GR0028  ',
(PID.TID 0000.0001) > fields( 29,8) = 'GR0029  ',
(PID.TID 0000.0001) > fields( 30,8) = 'GR0030  ',
(PID.TID 0000.0001) > fields( 31,8) = 'GR0031  ',
(PID.TID 0000.0001) > fields( 32,8) = 'GR0032  ',
(PID.TID 0000.0001) > fields( 33,8) = 'GR0033  ',
(PID.TID 0000.0001) > fields( 34,8) = 'GR0034  ',
(PID.TID 0000.0001) > fields( 35,8) = 'GR0035  ',
(PID.TID 0000.0001) > fields( 36,8) = 'GR0036  ',
(PID.TID 0000.0001) > fields( 37,8) = 'GR0037  ',
(PID.TID 0000.0001) > fields( 38,8) = 'GR0038  ',
(PID.TID 0000.0001) > fields( 39,8) = 'GR0039  ',
(PID.TID 0000.0001) > fields( 40,8) = 'GR0040  ',
(PID.TID 0000.0001) > fields( 41,8) = 'GR0041  ',
(PID.TID 0000.0001) > fields( 42,8) = 'GR0042  ',
(PID.TID 0000.0001) > fields( 43,8) = 'GR0043  ',
(PID.TID 0000.0001) > fields( 44,8) = 'GR0044  ',
(PID.TID 0000.0001) > fields( 45,8) = 'GR0045  ',
(PID.TID 0000.0001) > fields( 46,8) = 'GR0046  ',
(PID.TID 0000.0001) > fields( 47,8) = 'GR0047  ',
(PID.TID 0000.0001) > fields( 48,8) = 'GR0048  ',
(PID.TID 0000.0001) > fields( 49,8) = 'GR0049  ',
(PID.TID 0000.0001) > fields( 50,8) = 'GR0050  ',
(PID.TID 0000.0001) > filename( 10) = 'GRGN',
(PID.TID 0000.0001) > frequency(10) = 604800.0,
(PID.TID 0000.0001) > fields(  1,10) = 'GrGn0001  ',
(PID.TID 0000.0001) > fields(  2,10) = 'GrGn0002  ',
(PID.TID 0000.0001) > fields(  3,10) = 'GrGn0003  ',
(PID.TID 0000.0001) > fields(  4,10) = 'GrGn0004  ',
(PID.TID 0000.0001) > fields(  5,10) = 'GrGn0005  ',
(PID.TID 0000.0001) > fields(  6,10) = 'GrGn0006  ',
(PID.TID 0000.0001) > fields(  7,10) = 'GrGn0007  ',
(PID.TID 0000.0001) > fields(  8,10) = 'GrGn0008  ',
(PID.TID 0000.0001) > fields(  9,10) = 'GrGn0009  ',
(PID.TID 0000.0001) > fields( 10,10) = 'GrGn0010  ',
(PID.TID 0000.0001) > fields( 11,10) = 'GrGn0011  ',
(PID.TID 0000.0001) > fields( 12,10) = 'GrGn0012  ',
(PID.TID 0000.0001) > fields( 13,10) = 'GrGn0013  ',
(PID.TID 0000.0001) > fields( 14,10) = 'GrGn0014  ',
(PID.TID 0000.0001) > fields( 15,10) = 'GrGn0015  ',
(PID.TID 0000.0001) > fields( 16,10) = 'GrGn0016  ',
(PID.TID 0000.0001) > fields( 17,10) = 'GrGn0017  ',
(PID.TID 0000.0001) > fields( 18,10) = 'GrGn0018  ',
(PID.TID 0000.0001) > fields( 19,10) = 'GrGn0019  ',
(PID.TID 0000.0001) > fields( 20,10) = 'GrGn0020  ',
(PID.TID 0000.0001) > fields( 21,10) = 'GrGn0021  ',
(PID.TID 0000.0001) > fields( 22,10) = 'GrGn0022  ',
(PID.TID 0000.0001) > fields( 23,10) = 'GrGn0023  ',
(PID.TID 0000.0001) > fields( 24,10) = 'GrGn0024  ',
(PID.TID 0000.0001) > fields( 25,10) = 'GrGn0025  ',
(PID.TID 0000.0001) > fields( 26,10) = 'GrGn0026  ',
(PID.TID 0000.0001) > fields( 27,10) = 'GrGn0027  ',
(PID.TID 0000.0001) > fields( 28,10) = 'GrGn0028  ',
(PID.TID 0000.0001) > fields( 29,10) = 'GrGn0029  ',
(PID.TID 0000.0001) > fields( 30,10) = 'GrGn0030  ',
(PID.TID 0000.0001) > fields( 31,10) = 'GrGn0031  ',
(PID.TID 0000.0001) > fields( 32,10) = 'GrGn0032  ',
(PID.TID 0000.0001) > fields( 33,10) = 'GrGn0033  ',
(PID.TID 0000.0001) > fields( 34,10) = 'GrGn0034  ',
(PID.TID 0000.0001) > fields( 35,10) = 'GrGn0035  ',
(PID.TID 0000.0001) > fields( 36,10) = 'GrGn0036  ',
(PID.TID 0000.0001) > fields( 37,10) = 'GrGn0037  ',
(PID.TID 0000.0001) > fields( 38,10) = 'GrGn0038  ',
(PID.TID 0000.0001) > fields( 39,10) = 'GrGn0039  ',
(PID.TID 0000.0001) > fields( 40,10) = 'GrGn0040  ',
(PID.TID 0000.0001) > fields( 41,10) = 'GrGn0041  ',
(PID.TID 0000.0001) > fields( 42,10) = 'GrGn0042  ',
(PID.TID 0000.0001) > fields( 43,10) = 'GrGn0043  ',
(PID.TID 0000.0001) > fields( 44,10) = 'GrGn0044  ',
(PID.TID 0000.0001) > fields( 45,10) = 'GrGn0045  ',
(PID.TID 0000.0001) > fields( 46,10) = 'GrGn0046  ',
(PID.TID 0000.0001) > fields( 47,10) = 'GrGn0047  ',
(PID.TID 0000.0001) > fields( 48,10) = 'GrGn0048  ',
(PID.TID 0000.0001) > fields( 49,10) = 'GrGn0049  ',
(PID.TID 0000.0001) > fields( 50,10) = 'GrGn0050  ',
(PID.TID 0000.0001) > filename( 11) = 'PC',
(PID.TID 0000.0001) > frequency(11) = 604800.0,
(PID.TID 0000.0001) > fields(  1,11) = 'PC0001  ',
(PID.TID 0000.0001) > fields(  2,11) = 'PC0002  ',
(PID.TID 0000.0001) > fields(  3,11) = 'PC0003  ',
(PID.TID 0000.0001) > fields(  4,11) = 'PC0004  ',
(PID.TID 0000.0001) > /
(PID.TID 0000.0001) >
(PID.TID 0000.0001) > &DIAG_STATIS_PARMS
(PID.TID 0000.0001) > diagst_mnc = .FALSE.,
(PID.TID 0000.0001) > stat_freq(1:3) = 3*10800.,
(PID.TID 0000.0001) > stat_phase(1:3) = 3*0.,
(PID.TID 0000.0001) > stat_fields(1,1) = 'PP      ',
(PID.TID 0000.0001) > stat_fields(1,2) = 'Nfix    ',
(PID.TID 0000.0001) > stat_fields(1,3) = 'Denit   ',
(PID.TID 0000.0001) > stat_fname(1) = 'statsPP',
(PID.TID 0000.0001) > stat_fname(2) = 'statsNfix',
(PID.TID 0000.0001) > stat_fname(3) = 'statsDenit',
(PID.TID 0000.0001) > /
(PID.TID 0000.0001) >
(PID.TID 0000.0001) 
(PID.TID 0000.0001) S/R DIAGNOSTICS_READPARMS, read namelist "diagnostics_list": start
(PID.TID 0000.0001) S/R DIAGNOSTICS_READPARMS, read namelist "diagnostics_list": OK
(PID.TID 0000.0001) S/R DIAGNOSTICS_READPARMS, read namelist "DIAG_STATIS_PARMS": start
(PID.TID 0000.0001) S/R DIAGNOSTICS_READPARMS, read namelist "DIAG_STATIS_PARMS": OK
(PID.TID 0000.0001)  DIAGNOSTICS_READPARMS: global parameter summary:
(PID.TID 0000.0001)  dumpAtLast = /* always write time-ave diags at the end */
(PID.TID 0000.0001)                   F
(PID.TID 0000.0001)     ;
(PID.TID 0000.0001)  diag_mnc =   /* write NetCDF output files */
(PID.TID 0000.0001)                   T
(PID.TID 0000.0001)     ;
(PID.TID 0000.0001)  useMissingValue = /* put MissingValue where mask = 0 */
(PID.TID 0000.0001)                   F
(PID.TID 0000.0001)     ;
(PID.TID 0000.0001)  diagCG_maxIters = /* max number of iters in diag_cg2d */
(PID.TID 0000.0001)                     300
(PID.TID 0000.0001)     ;
(PID.TID 0000.0001)  diagCG_resTarget = /* residual target for diag_cg2d */
(PID.TID 0000.0001)                 1.000000000000000E-07
(PID.TID 0000.0001)     ;
(PID.TID 0000.0001)  diagCG_pcOffDFac = /* preconditioner off-diagonal factor */
(PID.TID 0000.0001)                 9.611687812379854E-01
(PID.TID 0000.0001)     ;
(PID.TID 0000.0001) -----------------------------------------------------
(PID.TID 0000.0001)  DIAGNOSTICS_READPARMS: active diagnostics summary:
(PID.TID 0000.0001) -----------------------------------------------------
(PID.TID 0000.0001) Creating Output Stream: 3d
(PID.TID 0000.0001) Output Frequency:     604800.000000 ; Phase:           0.000000
(PID.TID 0000.0001)  Averaging Freq.:     604800.000000 , Phase:           0.000000 , Cycle:   1
(PID.TID 0000.0001)  missing value: -9.990000000000E+02
(PID.TID 0000.0001)  Levels:    will be set later
(PID.TID 0000.0001)  Fields:    TRAC01   TRAC02   TRAC03   TRAC04   TRAC05   TRAC06   TRAC07   TRAC08   TRAC09   TRAC10
(PID.TID 0000.0001)  Fields:    TRAC11   TRAC12   TRAC13   TRAC14   TRAC15   TRAC16   TRAC17   TRAC18   TRAC19   TRAC20
(PID.TID 0000.0001)  Fields:    TRAC21   TRAC22   TRAC23   TRAC24   TRAC25   TRAC26   TRAC27   TRAC28   TRAC29   TRAC30
(PID.TID 0000.0001)  Fields:    TRAC31   TRAC32   TRAC33   TRAC34   TRAC35   TRAC36   TRAC37   TRAC38   TRAC39   TRAC40
(PID.TID 0000.0001)  Fields:    TRAC41   TRAC42   TRAC43   TRAC44   TRAC45   TRAC46   TRAC47   TRAC48   TRAC49   TRAC50
(PID.TID 0000.0001)  Fields:    TRAC51   TRAC52   TRAC53   TRAC54   TRAC55   TRAC56   TRAC57   TRAC58   TRAC59   TRAC60
(PID.TID 0000.0001)  Fields:    TRAC61   TRAC62   TRAC63   TRAC64   TRAC65   TRAC66   TRAC67   TRAC68   TRAC69   TRAC70
(PID.TID 0000.0001)  Fields:    PP       Nfix     Denit    pH       pCO2
(PID.TID 0000.0001) Creating Output Stream: chl
(PID.TID 0000.0001) Output Frequency:     604800.000000 ; Phase:           0.000000
(PID.TID 0000.0001)  Averaging Freq.:     604800.000000 , Phase:           0.000000 , Cycle:   1
(PID.TID 0000.0001)  missing value: -9.990000000000E+02
(PID.TID 0000.0001)  Levels:    will be set later
(PID.TID 0000.0001)  Fields:    TRAC71   TRAC72   TRAC73   TRAC74   TRAC75   TRAC76   TRAC77   TRAC78   TRAC79   TRAC80
(PID.TID 0000.0001)  Fields:    TRAC81   TRAC82   TRAC83   TRAC84   TRAC85   TRAC86   TRAC87   TRAC88   TRAC89   TRAC90
(PID.TID 0000.0001)  Fields:    TRAC91   TRAC92   TRAC93   TRAC94   TRAC95   TRAC96   TRAC97   TRAC98   TRAC99   TRAC0a
(PID.TID 0000.0001)  Fields:    TRAC0b
(PID.TID 0000.0001) Creating Output Stream: par
(PID.TID 0000.0001) Output Frequency:     604800.000000 ; Phase:           0.000000
(PID.TID 0000.0001)  Averaging Freq.:     604800.000000 , Phase:           0.000000 , Cycle:   1
(PID.TID 0000.0001)  missing value: -9.990000000000E+02
(PID.TID 0000.0001)  Levels:    will be set later
(PID.TID 0000.0001)  Fields:    Ed001    Ed002    Ed003    Ed004    Ed005    Ed006    Ed007    Ed008    Ed009    Ed010
(PID.TID 0000.0001)  Fields:    Ed011    Ed012    Ed013    Es001    Es002    Es003    Es004    Es005    Es006    Es007
(PID.TID 0000.0001)  Fields:    Es008    Es009    Es010    Es011    Es012    Es013    Eu001    Eu002    Eu003    Eu004
(PID.TID 0000.0001)  Fields:    Eu005    Eu006    Eu007    Eu008    Eu009    Eu010    Eu011    Eu012    Eu013    PAR001
(PID.TID 0000.0001)  Fields:    PAR002   PAR003   PAR004   PAR005   PAR006   PAR007   PAR008   PAR009   PAR010   PAR011
(PID.TID 0000.0001)  Fields:    PAR012   PAR013
(PID.TID 0000.0001) Creating Output Stream: nutr_tend
(PID.TID 0000.0001) Output Frequency:     604800.000000 ; Phase:           0.000000
(PID.TID 0000.0001)  Averaging Freq.:     604800.000000 , Phase:           0.000000 , Cycle:   1
(PID.TID 0000.0001)  missing value: -9.990000000000E+02
(PID.TID 0000.0001)  Levels:    will be set later
(PID.TID 0000.0001)  Fields:    Tp_gTr01 Tp_gTr02 Tp_gTr03 Tp_gTr04 Tp_gTr05 Tp_gTr06 Tp_gTr07 gDAR01   gDAR02   gDAR03
(PID.TID 0000.0001)  Fields:    gDAR04   gDAR05   gDAR06   gDAR07   S_DIN    S_PO4    S_Si     S_Fe
(PID.TID 0000.0001) Creating Output Stream: 2d
(PID.TID 0000.0001) Output Frequency:     604800.000000 ; Phase:           0.000000
(PID.TID 0000.0001)  Averaging Freq.:     604800.000000 , Phase:           0.000000 , Cycle:   1
(PID.TID 0000.0001)  missing value: -9.990000000000E+02
(PID.TID 0000.0001)  Levels:    will be set later
(PID.TID 0000.0001)  Fields:    fluxCO2  gDICsurf gALKsurf gO2surf
(PID.TID 0000.0001) Creating Output Stream: PP
(PID.TID 0000.0001) Output Frequency:     604800.000000 ; Phase:           0.000000
(PID.TID 0000.0001)  Averaging Freq.:     604800.000000 , Phase:           0.000000 , Cycle:   1
(PID.TID 0000.0001)  missing value: -9.990000000000E+02
(PID.TID 0000.0001)  Levels:    will be set later
(PID.TID 0000.0001)  Fields:    PP0001   PP0002   PP0003   PP0004   PP0005   PP0006   PP0007   PP0008   PP0009   PP0010
(PID.TID 0000.0001)  Fields:    PP0011   PP0012   PP0013   PP0014   PP0015   PP0016   PP0017   PP0018   PP0019   PP0020
(PID.TID 0000.0001)  Fields:    PP0021   PP0022   PP0023   PP0024   PP0025   PP0026   PP0027   PP0028   PP0029   PP0030
(PID.TID 0000.0001)  Fields:    PP0031
(PID.TID 0000.0001) Creating Output Stream: GR
(PID.TID 0000.0001) Output Frequency:     604800.000000 ; Phase:           0.000000
(PID.TID 0000.0001)  Averaging Freq.:     604800.000000 , Phase:           0.000000 , Cycle:   1
(PID.TID 0000.0001)  missing value: -9.990000000000E+02
(PID.TID 0000.0001)  Levels:    will be set later
(PID.TID 0000.0001)  Fields:    GR0001   GR0002   GR0003   GR0004   GR0005   GR0006   GR0007   GR0008   GR0009   GR0010
(PID.TID 0000.0001)  Fields:    GR0011   GR0012   GR0013   GR0014   GR0015   GR0016   GR0017   GR0018   GR0019   GR0020
(PID.TID 0000.0001)  Fields:    GR0021   GR0022   GR0023   GR0024   GR0025   GR0026   GR0027   GR0028   GR0029   GR0030
(PID.TID 0000.0001)  Fields:    GR0031   GR0032   GR0033   GR0034   GR0035   GR0036   GR0037   GR0038   GR0039   GR0040
(PID.TID 0000.0001)  Fields:    GR0041   GR0042   GR0043   GR0044   GR0045   GR0046   GR0047   GR0048   GR0049   GR0050
(PID.TID 0000.0001) Creating Output Stream: GRGN
(PID.TID 0000.0001) Output Frequency:     604800.000000 ; Phase:           0.000000
(PID.TID 0000.0001)  Averaging Freq.:     604800.000000 , Phase:           0.000000 , Cycle:   1
(PID.TID 0000.0001)  missing value: -9.990000000000E+02
(PID.TID 0000.0001)  Levels:    will be set later
(PID.TID 0000.0001)  Fields:    GrGn0001 GrGn0002 GrGn0003 GrGn0004 GrGn0005 GrGn0006 GrGn0007 GrGn0008 GrGn0009 GrGn0010
(PID.TID 0000.0001)  Fields:    GrGn0011 GrGn0012 GrGn0013 GrGn0014 GrGn0015 GrGn0016 GrGn0017 GrGn0018 GrGn0019 GrGn0020
(PID.TID 0000.0001)  Fields:    GrGn0021 GrGn0022 GrGn0023 GrGn0024 GrGn0025 GrGn0026 GrGn0027 GrGn0028 GrGn0029 GrGn0030
(PID.TID 0000.0001)  Fields:    GrGn0031 GrGn0032 GrGn0033 GrGn0034 GrGn0035 GrGn0036 GrGn0037 GrGn0038 GrGn0039 GrGn0040
(PID.TID 0000.0001)  Fields:    GrGn0041 GrGn0042 GrGn0043 GrGn0044 GrGn0045 GrGn0046 GrGn0047 GrGn0048 GrGn0049 GrGn0050
(PID.TID 0000.0001) Creating Output Stream: PC
(PID.TID 0000.0001) Output Frequency:     604800.000000 ; Phase:           0.000000
(PID.TID 0000.0001)  Averaging Freq.:     604800.000000 , Phase:           0.000000 , Cycle:   1
(PID.TID 0000.0001)  missing value: -9.990000000000E+02
(PID.TID 0000.0001)  Levels:    will be set later
(PID.TID 0000.0001)  Fields:    PC0001   PC0002   PC0003   PC0004
(PID.TID 0000.0001) -----------------------------------------------------
(PID.TID 0000.0001)  DIAGNOSTICS_READPARMS: statistics diags. summary:
(PID.TID 0000.0001) Creating Stats. Output Stream: statsPP
(PID.TID 0000.0001) Output Frequency:      10800.000000 ; Phase:           0.000000
(PID.TID 0000.0001)  Regions:   0
(PID.TID 0000.0001)  Fields:    PP
(PID.TID 0000.0001) Creating Stats. Output Stream: statsNfix
(PID.TID 0000.0001) Output Frequency:      10800.000000 ; Phase:           0.000000
(PID.TID 0000.0001)  Regions:   0
(PID.TID 0000.0001)  Fields:    Nfix
(PID.TID 0000.0001) Creating Stats. Output Stream: statsDenit
(PID.TID 0000.0001) Output Frequency:      10800.000000 ; Phase:           0.000000
(PID.TID 0000.0001)  Regions:   0
(PID.TID 0000.0001)  Fields:    Denit
(PID.TID 0000.0001) -----------------------------------------------------
(PID.TID 0000.0001) 
(PID.TID 0000.0001)  OFFLINE_RESET_PARMS: => turn off Temp,Salt & Mom_Stepping flags
(PID.TID 0000.0001) ** WARNING ** OFFLINE_RESET_PARMS: => turn on exactConserv to compute wVel
(PID.TID 0000.0001) SET_PARMS: done
(PID.TID 0000.0001) Enter INI_VERTICAL_GRID: setInterFDr=    T ; setCenterDr=    F
(PID.TID 0000.0001) %MON XC_max                       =   5.0000000000000E-01
(PID.TID 0000.0001) %MON XC_min                       =   5.0000000000000E-01
(PID.TID 0000.0001) %MON XC_mean                      =   5.0000000000000E-01
(PID.TID 0000.0001) %MON XC_sd                        =   0.0000000000000E+00
(PID.TID 0000.0001) %MON XG_max                       =   0.0000000000000E+00
(PID.TID 0000.0001) %MON XG_min                       =   0.0000000000000E+00
(PID.TID 0000.0001) %MON XG_mean                      =   0.0000000000000E+00
(PID.TID 0000.0001) %MON XG_sd                        =   0.0000000000000E+00
(PID.TID 0000.0001) %MON DXC_max                      =   1.0000000000000E+00
(PID.TID 0000.0001) %MON DXC_min                      =   1.0000000000000E+00
(PID.TID 0000.0001) %MON DXC_mean                     =   1.0000000000000E+00
[...]
(PID.TID 0000.0001) %MON trcstat_ptracer91_mean       =   0.0000000000000E+00
(PID.TID 0000.0001) %MON trcstat_ptracer91_sd         =   0.0000000000000E+00
(PID.TID 0000.0001) %MON trcstat_ptracer91_del2       =   0.0000000000000E+00
(PID.TID 0000.0001) %MON trcstat_ptracer92_max        =   0.0000000000000E+00
(PID.TID 0000.0001) %MON trcstat_ptracer92_min        =   0.0000000000000E+00
(PID.TID 0000.0001) %MON trcstat_ptracer92_mean       =   0.0000000000000E+00
(PID.TID 0000.0001) %MON trcstat_ptracer92_sd         =   0.0000000000000E+00
(PID.TID 0000.0001) %MON trcstat_ptracer92_del2       =   0.0000000000000E+00
(PID.TID 0000.0001) %MON trcstat_ptracer93_max        =   0.0000000000000E+00
(PID.TID 0000.0001) %MON trcstat_ptracer93_min        =   0.0000000000000E+00
(PID.TID 0000.0001) %MON trcstat_ptracer93_mean       =   0.0000000000000E+00
(PID.TID 0000.0001) %MON trcstat_ptracer93_sd         =   0.0000000000000E+00
(PID.TID 0000.0001) %MON trcstat_ptracer93_del2       =   0.0000000000000E+00
(PID.TID 0000.0001) %MON trcstat_ptracer94_max        =   0.0000000000000E+00
(PID.TID 0000.0001) %MON trcstat_ptracer94_min        =   0.0000000000000E+00
(PID.TID 0000.0001) %MON trcstat_ptracer94_mean       =   0.0000000000000E+00
(PID.TID 0000.0001) %MON trcstat_ptracer94_sd         =   0.0000000000000E+00
(PID.TID 0000.0001) %MON trcstat_ptracer94_del2       =   0.0000000000000E+00
(PID.TID 0000.0001) %MON trcstat_ptracer95_max        =   0.0000000000000E+00
(PID.TID 0000.0001) %MON trcstat_ptracer95_min        =   0.0000000000000E+00
(PID.TID 0000.0001) %MON trcstat_ptracer95_mean       =   0.0000000000000E+00
(PID.TID 0000.0001) %MON trcstat_ptracer95_sd         =   0.0000000000000E+00
(PID.TID 0000.0001) %MON trcstat_ptracer95_del2       =   0.0000000000000E+00
(PID.TID 0000.0001) %MON trcstat_ptracer96_max        =   0.0000000000000E+00
(PID.TID 0000.0001) %MON trcstat_ptracer96_min        =   0.0000000000000E+00
(PID.TID 0000.0001) %MON trcstat_ptracer96_mean       =   0.0000000000000E+00
(PID.TID 0000.0001) %MON trcstat_ptracer96_sd         =   0.0000000000000E+00
(PID.TID 0000.0001) %MON trcstat_ptracer96_del2       =   0.0000000000000E+00
(PID.TID 0000.0001) %MON trcstat_ptracer97_max        =   0.0000000000000E+00
(PID.TID 0000.0001) %MON trcstat_ptracer97_min        =   0.0000000000000E+00
(PID.TID 0000.0001) %MON trcstat_ptracer97_mean       =   0.0000000000000E+00
(PID.TID 0000.0001) %MON trcstat_ptracer97_sd         =   0.0000000000000E+00
(PID.TID 0000.0001) %MON trcstat_ptracer97_del2       =   0.0000000000000E+00
(PID.TID 0000.0001) %MON trcstat_ptracer98_max        =   0.0000000000000E+00
(PID.TID 0000.0001) %MON trcstat_ptracer98_min        =   0.0000000000000E+00
(PID.TID 0000.0001) %MON trcstat_ptracer98_mean       =   0.0000000000000E+00
(PID.TID 0000.0001) %MON trcstat_ptracer98_sd         =   0.0000000000000E+00
(PID.TID 0000.0001) %MON trcstat_ptracer98_del2       =   0.0000000000000E+00
(PID.TID 0000.0001) %MON trcstat_ptracer99_max        =   0.0000000000000E+00
(PID.TID 0000.0001) %MON trcstat_ptracer99_min        =   0.0000000000000E+00
(PID.TID 0000.0001) %MON trcstat_ptracer99_mean       =   0.0000000000000E+00
(PID.TID 0000.0001) %MON trcstat_ptracer99_sd         =   0.0000000000000E+00
(PID.TID 0000.0001) %MON trcstat_ptracer99_del2       =   0.0000000000000E+00
(PID.TID 0000.0001) %MON trcstat_ptracer0a_max        =   0.0000000000000E+00
(PID.TID 0000.0001) %MON trcstat_ptracer0a_min        =   0.0000000000000E+00
(PID.TID 0000.0001) %MON trcstat_ptracer0a_mean       =   0.0000000000000E+00
(PID.TID 0000.0001) %MON trcstat_ptracer0a_sd         =   0.0000000000000E+00
(PID.TID 0000.0001) %MON trcstat_ptracer0a_del2       =   0.0000000000000E+00
(PID.TID 0000.0001) %MON trcstat_ptracer0b_max        =   0.0000000000000E+00
(PID.TID 0000.0001) %MON trcstat_ptracer0b_min        =   0.0000000000000E+00
(PID.TID 0000.0001) %MON trcstat_ptracer0b_mean       =   0.0000000000000E+00
(PID.TID 0000.0001) %MON trcstat_ptracer0b_sd         =   0.0000000000000E+00
(PID.TID 0000.0001) %MON trcstat_ptracer0b_del2       =   0.0000000000000E+00
(PID.TID 0000.0001) // =======================================================
(PID.TID 0000.0001) // End MONITOR ptracer field statistics
(PID.TID 0000.0001) // =======================================================
 Compute Stats, Diag. #   1785  PP        vol(   0 ): 1.000E+00  Parms: SMRP    MR      
 Compute Stats, Diag. #   1786  Nfix      vol(   0 ): 1.000E+00  Parms: SMRP    MR      
 Compute Stats, Diag. #   1787  Denit     vol(   0 ): 1.000E+00  Parms: SMRP    MR      
(PID.TID 0000.0001) DIAGSTATS_CLOSE_IO: close file: statsPP.0000000000.txt , unit=     9
(PID.TID 0000.0001) DIAGSTATS_CLOSE_IO: close file: statsNfix.0000000000.txt , unit=    10
(PID.TID 0000.0001) DIAGSTATS_CLOSE_IO: close file: statsDenit.0000000000.txt , unit=    16
(PID.TID 0000.0001) %CHECKPOINT      2880 0000002880
(PID.TID 0000.0001)   Seconds in section "ALL                    [THE_MODEL_MAIN]":
(PID.TID 0000.0001)           User time:   152.71719078603201
(PID.TID 0000.0001)         System time:   1.0946799863595515
(PID.TID 0000.0001)     Wall clock time:   154.27532410621643
(PID.TID 0000.0001)          No. starts:           1
(PID.TID 0000.0001)           No. stops:           1
(PID.TID 0000.0001)   Seconds in section "INITIALISE_FIXED       [THE_MODEL_MAIN]":
(PID.TID 0000.0001)           User time:   2.8596590997185558
(PID.TID 0000.0001)         System time:   4.9480998655781150E-002
(PID.TID 0000.0001)     Wall clock time:   2.9189510345458984
(PID.TID 0000.0001)          No. starts:           1
(PID.TID 0000.0001)           No. stops:           1
(PID.TID 0000.0001)   Seconds in section "THE_MAIN_LOOP          [THE_MODEL_MAIN]":
(PID.TID 0000.0001)           User time:   149.85673236846924
(PID.TID 0000.0001)         System time:   1.0447630435228348
(PID.TID 0000.0001)     Wall clock time:   151.35514307022095
(PID.TID 0000.0001)          No. starts:           1
(PID.TID 0000.0001)           No. stops:           1
(PID.TID 0000.0001)   Seconds in section "INITIALISE_VARIA    [THE_MAIN_LOOP]":
(PID.TID 0000.0001)           User time:   2.5238037109375000E-002
(PID.TID 0000.0001)         System time:   1.3509988784790039E-003
(PID.TID 0000.0001)     Wall clock time:   2.6610851287841797E-002
(PID.TID 0000.0001)          No. starts:           1
(PID.TID 0000.0001)           No. stops:           1
(PID.TID 0000.0001)   Seconds in section "MAIN LOOP           [THE_MAIN_LOOP]":
(PID.TID 0000.0001)           User time:   149.83148622512817
(PID.TID 0000.0001)         System time:   1.0434100441634655
(PID.TID 0000.0001)     Wall clock time:   151.32852101325989
(PID.TID 0000.0001)          No. starts:           1
(PID.TID 0000.0001)           No. stops:           1
(PID.TID 0000.0001)   Seconds in section "MAIN_DO_LOOP        [THE_MAIN_LOOP]":
(PID.TID 0000.0001)           User time:   149.82151269912720
(PID.TID 0000.0001)         System time:   1.0428569689393044
(PID.TID 0000.0001)     Wall clock time:   151.31815934181213
(PID.TID 0000.0001)          No. starts:        2880
(PID.TID 0000.0001)           No. stops:        2880
(PID.TID 0000.0001)   Seconds in section "FORWARD_STEP        [MAIN_DO_LOOP]":
(PID.TID 0000.0001)           User time:   149.80206632614136
(PID.TID 0000.0001)         System time:   1.0417924299836159
(PID.TID 0000.0001)     Wall clock time:   151.29761815071106
(PID.TID 0000.0001)          No. starts:        2880
(PID.TID 0000.0001)           No. stops:        2880
(PID.TID 0000.0001)   Seconds in section "DO_STATEVARS_DIAGS  [FORWARD_STEP]":
(PID.TID 0000.0001)           User time:  0.69542312622070312
(PID.TID 0000.0001)         System time:   4.0155462920665741E-003
(PID.TID 0000.0001)     Wall clock time:  0.70255923271179199
(PID.TID 0000.0001)          No. starts:        5760
(PID.TID 0000.0001)           No. stops:        5760
(PID.TID 0000.0001)   Seconds in section "LOAD_FIELDS_DRIVER  [FORWARD_STEP]":
(PID.TID 0000.0001)           User time:   1.3031556606292725
(PID.TID 0000.0001)         System time:   1.2716311961412430E-002
(PID.TID 0000.0001)     Wall clock time:   1.3213441371917725
(PID.TID 0000.0001)          No. starts:        2880
(PID.TID 0000.0001)           No. stops:        2880
(PID.TID 0000.0001)   Seconds in section "EXF_GETFORCING     [LOAD_FLDS_DRIVER]":
(PID.TID 0000.0001)           User time:   3.2632112503051758E-002
(PID.TID 0000.0001)         System time:   7.2000920772552490E-004
(PID.TID 0000.0001)     Wall clock time:   3.3840417861938477E-002
(PID.TID 0000.0001)          No. starts:        2880
(PID.TID 0000.0001)           No. stops:        2880
(PID.TID 0000.0001)   Seconds in section "EXTERNAL_FLDS_LOAD [LOAD_FLDS_DRIVER]":
(PID.TID 0000.0001)           User time:   1.1836290359497070E-002
(PID.TID 0000.0001)         System time:   5.4867938160896301E-004
(PID.TID 0000.0001)     Wall clock time:   1.2321949005126953E-002
(PID.TID 0000.0001)          No. starts:        2880
(PID.TID 0000.0001)           No. stops:        2880
(PID.TID 0000.0001)   Seconds in section "DO_ATMOSPHERIC_PHYS [FORWARD_STEP]":
(PID.TID 0000.0001)           User time:   9.7508430480957031E-003
(PID.TID 0000.0001)         System time:   5.6804344058036804E-004
(PID.TID 0000.0001)     Wall clock time:   1.0441541671752930E-002
(PID.TID 0000.0001)          No. starts:        2880
(PID.TID 0000.0001)           No. stops:        2880
(PID.TID 0000.0001)   Seconds in section "DO_OCEANIC_PHYS     [FORWARD_STEP]":
(PID.TID 0000.0001)           User time:   7.7033996582031250E-002
(PID.TID 0000.0001)         System time:   1.8317289650440216E-003
(PID.TID 0000.0001)     Wall clock time:   7.9089641571044922E-002
(PID.TID 0000.0001)          No. starts:        2880
(PID.TID 0000.0001)           No. stops:        2880
(PID.TID 0000.0001)   Seconds in section "KPP_CALC [DO_OCEANIC_PHYS]":
(PID.TID 0000.0001)           User time:   2.9320716857910156E-002
(PID.TID 0000.0001)         System time:   7.1105360984802246E-004
(PID.TID 0000.0001)     Wall clock time:   3.0257701873779297E-002
(PID.TID 0000.0001)          No. starts:        2880
(PID.TID 0000.0001)           No. stops:        2880
(PID.TID 0000.0001)   Seconds in section "THERMODYNAMICS      [FORWARD_STEP]":
(PID.TID 0000.0001)           User time:  0.82565808296203613
(PID.TID 0000.0001)         System time:   3.9951689541339874E-003
(PID.TID 0000.0001)     Wall clock time:  0.83252859115600586
(PID.TID 0000.0001)          No. starts:        2880
(PID.TID 0000.0001)           No. stops:        2880
(PID.TID 0000.0001)   Seconds in section "OFFLINE_FLDS_LOAD   [FORWARD_STEP]":
(PID.TID 0000.0001)           User time:   1.1629581451416016E-002
(PID.TID 0000.0001)         System time:   6.7760795354843140E-004
(PID.TID 0000.0001)     Wall clock time:   1.2344121932983398E-002
(PID.TID 0000.0001)          No. starts:        2880
(PID.TID 0000.0001)           No. stops:        2880
(PID.TID 0000.0001)   Seconds in section "INTEGR_CONTINUITY   [FORWARD_STEP]":
(PID.TID 0000.0001)           User time:   1.1379003524780273E-002
(PID.TID 0000.0001)         System time:   5.4449960589408875E-004
(PID.TID 0000.0001)     Wall clock time:   1.2038469314575195E-002
(PID.TID 0000.0001)          No. starts:        2880
(PID.TID 0000.0001)           No. stops:        2880
(PID.TID 0000.0001)   Seconds in section "TRC_CORRECTION_STEP [FORWARD_STEP]":
(PID.TID 0000.0001)           User time:   9.6600055694580078E-003
(PID.TID 0000.0001)         System time:   5.3991749882698059E-004
(PID.TID 0000.0001)     Wall clock time:   1.0482072830200195E-002
(PID.TID 0000.0001)          No. starts:        2880
(PID.TID 0000.0001)           No. stops:        2880
(PID.TID 0000.0001)   Seconds in section "GCHEM_FORCING_SEP  [FORWARD_STEP]":
(PID.TID 0000.0001)           User time:   1.6459589004516602
(PID.TID 0000.0001)         System time:   3.4262590110301971E-002
(PID.TID 0000.0001)     Wall clock time:   1.7006742954254150
(PID.TID 0000.0001)          No. starts:        2880
(PID.TID 0000.0001)           No. stops:        2880
(PID.TID 0000.0001)   Seconds in section "DARWIN_FORCING [GCHEM_FORCING_SEP]":
(PID.TID 0000.0001)           User time:   1.3958947658538818
(PID.TID 0000.0001)         System time:   1.9062489271163940E-002
(PID.TID 0000.0001)     Wall clock time:   1.4176938533782959
(PID.TID 0000.0001)          No. starts:        2880
(PID.TID 0000.0001)           No. stops:        2880
(PID.TID 0000.0001)   Seconds in section "DARWIN_LIGHT [DARWIN_FORCING]":
(PID.TID 0000.0001)           User time:  0.37520408630371094
(PID.TID 0000.0001)         System time:   2.3726001381874084E-003
(PID.TID 0000.0001)     Wall clock time:  0.37868452072143555
(PID.TID 0000.0001)          No. starts:        2880
(PID.TID 0000.0001)           No. stops:        2880
(PID.TID 0000.0001)   Seconds in section "DARWIN_SURFFORCING [DARWIN_FORCING]":
(PID.TID 0000.0001)           User time:   1.5492677688598633E-002
(PID.TID 0000.0001)         System time:   5.5719166994094849E-004
(PID.TID 0000.0001)     Wall clock time:   1.6306877136230469E-002
(PID.TID 0000.0001)          No. starts:        2880
(PID.TID 0000.0001)           No. stops:        2880
(PID.TID 0000.0001)   Seconds in section "DARWIN_FE_CHEM [DARWIN_FORCING]":
(PID.TID 0000.0001)           User time:   2.0001411437988281E-002
(PID.TID 0000.0001)         System time:   1.0820440948009491E-003
(PID.TID 0000.0001)     Wall clock time:   2.1116018295288086E-002
(PID.TID 0000.0001)          No. starts:        5760
(PID.TID 0000.0001)           No. stops:        5760
(PID.TID 0000.0001)   Seconds in section "DARWIN_FE_DUST [DARWIN_FORCING]":
(PID.TID 0000.0001)           User time:   9.8338127136230469E-003
(PID.TID 0000.0001)         System time:   5.5941939353942871E-004
(PID.TID 0000.0001)     Wall clock time:   1.0497331619262695E-002
(PID.TID 0000.0001)          No. starts:        2880
(PID.TID 0000.0001)           No. stops:        2880
(PID.TID 0000.0001)   Seconds in section "DARWIN_FE_SCAV [DARWIN_FORCING]":
(PID.TID 0000.0001)           User time:   9.8569393157958984E-003
(PID.TID 0000.0001)         System time:   5.0928816199302673E-004
(PID.TID 0000.0001)     Wall clock time:   1.0443925857543945E-002
(PID.TID 0000.0001)          No. starts:        2880
(PID.TID 0000.0001)           No. stops:        2880
(PID.TID 0000.0001)   Seconds in section "DARWIN_FE_SED [DARWIN_FORCING]":
(PID.TID 0000.0001)           User time:   1.0285377502441406E-002
(PID.TID 0000.0001)         System time:   5.2183866500854492E-004
(PID.TID 0000.0001)     Wall clock time:   1.0370254516601562E-002
(PID.TID 0000.0001)          No. starts:        2880
(PID.TID 0000.0001)           No. stops:        2880
(PID.TID 0000.0001)   Seconds in section "DARWIN_PLANKTON [DARWIN_FORCING]":
(PID.TID 0000.0001)           User time:   2.7395963668823242E-002
(PID.TID 0000.0001)         System time:   7.0305541157722473E-004
(PID.TID 0000.0001)     Wall clock time:   2.7933359146118164E-002
(PID.TID 0000.0001)          No. starts:        2880
(PID.TID 0000.0001)           No. stops:        2880
(PID.TID 0000.0001)   Seconds in section "DIAGS_FILL [DARWIN_FORCING]":
(PID.TID 0000.0001)           User time:  0.77524447441101074
(PID.TID 0000.0001)         System time:   4.4625625014305115E-003
(PID.TID 0000.0001)     Wall clock time:  0.78264141082763672
(PID.TID 0000.0001)          No. starts:        5760
(PID.TID 0000.0001)           No. stops:        5760
(PID.TID 0000.0001)   Seconds in section "DARWIN_SINKING [DARWIN_FORCING]":
(PID.TID 0000.0001)           User time:   1.0269403457641602E-002
(PID.TID 0000.0001)         System time:   5.4594874382019043E-004
(PID.TID 0000.0001)     Wall clock time:   1.0823726654052734E-002
(PID.TID 0000.0001)          No. starts:        2880
(PID.TID 0000.0001)           No. stops:        2880
(PID.TID 0000.0001)   Seconds in section "DARWIN_STEP [DARWIN_FORCING]":
(PID.TID 0000.0001)           User time:   1.0825157165527344E-002
(PID.TID 0000.0001)         System time:   5.0253421068191528E-004
(PID.TID 0000.0001)     Wall clock time:   1.1583089828491211E-002
(PID.TID 0000.0001)          No. starts:        2880
(PID.TID 0000.0001)           No. stops:        2880
(PID.TID 0000.0001)   Seconds in section "BLOCKING_EXCHANGES  [FORWARD_STEP]":
(PID.TID 0000.0001)           User time:   6.7201614379882812E-002
(PID.TID 0000.0001)         System time:   8.4280222654342651E-004
(PID.TID 0000.0001)     Wall clock time:   6.8197488784790039E-002
(PID.TID 0000.0001)          No. starts:        2880
(PID.TID 0000.0001)           No. stops:        2880
(PID.TID 0000.0001)   Seconds in section "DO_STATEVARS_TAVE   [FORWARD_STEP]":
(PID.TID 0000.0001)           User time:   1.7662286758422852E-002
(PID.TID 0000.0001)         System time:   5.6631490588188171E-004
(PID.TID 0000.0001)     Wall clock time:   1.8106460571289062E-002
(PID.TID 0000.0001)          No. starts:        2880
(PID.TID 0000.0001)           No. stops:        2880
(PID.TID 0000.0001)   Seconds in section "MONITOR             [FORWARD_STEP]":
(PID.TID 0000.0001)           User time:   1.0076045989990234E-002
(PID.TID 0000.0001)         System time:   5.8292597532272339E-004
(PID.TID 0000.0001)     Wall clock time:   1.0811090469360352E-002
(PID.TID 0000.0001)          No. starts:        2880
(PID.TID 0000.0001)           No. stops:        2880
(PID.TID 0000.0001)   Seconds in section "DO_THE_MODEL_IO     [FORWARD_STEP]":
(PID.TID 0000.0001)           User time:   144.91753458976746
(PID.TID 0000.0001)         System time:  0.96688481047749519
(PID.TID 0000.0001)     Wall clock time:   146.30762052536011
(PID.TID 0000.0001)          No. starts:        2880
(PID.TID 0000.0001)           No. stops:        2880
(PID.TID 0000.0001)   Seconds in section "PTRACERS_RESET      [FORWARD_STEP]":
(PID.TID 0000.0001)           User time:   1.0580778121948242E-002
(PID.TID 0000.0001)         System time:   5.3105503320693970E-004
(PID.TID 0000.0001)     Wall clock time:   1.1061668395996094E-002
(PID.TID 0000.0001)          No. starts:        2880
(PID.TID 0000.0001)           No. stops:        2880
(PID.TID 0000.0001)   Seconds in section "DO_WRITE_PICKUP     [FORWARD_STEP]":
(PID.TID 0000.0001)           User time:   1.9659996032714844E-002
(PID.TID 0000.0001)         System time:   2.8801970183849335E-003
(PID.TID 0000.0001)     Wall clock time:   2.3320436477661133E-002
(PID.TID 0000.0001)          No. starts:        2880
(PID.TID 0000.0001)           No. stops:        2880
(PID.TID 0000.0001) // ======================================================
(PID.TID 0000.0001) // Tile <-> Tile communication statistics
(PID.TID 0000.0001) // ======================================================
(PID.TID 0000.0001) // o Tile number: 000001
(PID.TID 0000.0001) //         No. X exchanges =              0
(PID.TID 0000.0001) //            Max. X spins =              0
(PID.TID 0000.0001) //            Min. X spins =     1000000000
(PID.TID 0000.0001) //          Total. X spins =              0
(PID.TID 0000.0001) //            Avg. X spins =       0.00E+00
(PID.TID 0000.0001) //         No. Y exchanges =              0
(PID.TID 0000.0001) //            Max. Y spins =              0
(PID.TID 0000.0001) //            Min. Y spins =     1000000000
(PID.TID 0000.0001) //          Total. Y spins =              0
(PID.TID 0000.0001) //            Avg. Y spins =       0.00E+00
(PID.TID 0000.0001) // o Thread number: 000001
(PID.TID 0000.0001) //            No. barriers =         316108
(PID.TID 0000.0001) //      Max. barrier spins =              1
(PID.TID 0000.0001) //      Min. barrier spins =              1
(PID.TID 0000.0001) //     Total barrier spins =         316108
(PID.TID 0000.0001) //      Avg. barrier spins =       1.00E+00
PROGRAM MAIN: Execution ended Normally
